28

C -4.223356724 -2.038100004 0.040099993
C -3.730556488 -2.745699883 1.305600047
C -3.767756462 -2.795300007 -1.210799932
C -1.090356588 -0.781899929 -0.005300007
O -0.919456542 -1.980599880 0.007299994
N -0.084656537 0.143300027 -0.015400007
N 1.204143524 -0.210399985 -0.010500006
C 2.099943399 0.693600059 -0.019400006
C 3.506543398 0.362600029 -0.013300007
C 3.918743372 -0.970999956 -0.000100007
C 5.261043072 -1.321099997 0.006899993
C 6.178243160 -0.294299990 0.000299993
C 5.776043415 1.044299960 -0.013100008
C 4.453743458 1.401000023 -0.020300006
O 6.884643078 1.849900007 -0.017000007
C 7.995443344 0.980000019 -0.004900007
O 7.543243408 -0.357299984 0.005099994
C -5.860156536 0.605900049 -0.023400007
N -6.742556572 -0.350799978 -0.097000010
O -7.943256855 0.229600012 -0.090700008
N -7.850956917 1.578299999 -0.016000006
C -6.573256493 1.869600058 0.031299993
N -6.035456657 3.088400126 0.160599992
S -2.070876360 0.611195445 0.227914348
S 0.374459296 1.787761450 0.427835763
I -2.682101250 0.529955745 2.317595005
P -2.216005802 -0.272572964 1.354001164
C -1.229810119 -0.409027398 2.456980228
