
     RDKit          3D

  7  7  0  0  0  0  0  0  0  0999 V2000
   -1.6163    0.6581    2.1420 F   0  0  0  0  0  0  0  0  0  0  0  0
   -0.8313    0.3395    1.0813 C   0  0  0  0  0  0  0  0  0  0  0  0
   -1.3988   -0.1413   -0.1131 C   0  0  0  0  0  0  0  0  0  0  0  0
   -0.5531   -0.4957   -1.1769 C   0  0  0  0  0  0  0  0  0  0  0  0
    0.8330   -0.3721   -1.0528 C   0  0  0  0  0  0  0  0  0  0  0  0
    1.4013    0.1134    0.1363 C   0  0  0  0  0  0  0  0  0  0  0  0
    0.5563    0.4623    1.2031 C   0  0  0  0  0  0  0  0  0  0  0  0
  1  2  1  0
  2  3  4  0
  3  4  4  0
  4  5  4  0
  5  6  4  0
  6  7  4  0
  7  2  4  0
M  END
$$$$

     RDKit          3D

  8  8  0  0  0  0  0  0  0  0999 V2000
    1.2192    2.4783   -0.2618 F   0  0  0  0  0  0  0  0  0  0  0  0
    0.6295    1.2620   -0.1332 C   0  0  0  0  0  0  0  0  0  0  0  0
    1.4080    0.1123    0.0892 C   0  0  0  0  0  0  0  0  0  0  0  0
    0.7697   -1.1257    0.2595 C   0  0  0  0  0  0  0  0  0  0  0  0
   -0.6226   -1.2181    0.2010 C   0  0  0  0  0  0  0  0  0  0  0  0
   -1.4039   -0.0735   -0.0257 C   0  0  0  0  0  0  0  0  0  0  0  0
   -0.7659    1.1699   -0.1921 C   0  0  0  0  0  0  0  0  0  0  0  0
   -1.4952    2.3000   -0.3777 F   0  0  0  0  0  0  0  0  0  0  0  0
  1  2  1  0
  2  3  4  0
  3  4  4  0
  4  5  4  0
  5  6  4  0
  6  7  4  0
  7  8  1  0
  7  2  4  0
M  END
$$$$

     RDKit          3D

  6  6  0  0  0  0  0  0  0  0999 V2000
    1.2496    0.1515    1.6857 N   0  0  0  0  0  0  0  0  0  0  0  0
   -0.0642    0.0418    1.8765 N   0  0  0  0  0  0  0  0  0  0  0  0
   -0.9310    0.3323    0.8743 C   0  0  0  0  0  0  0  0  0  0  0  0
   -0.4411    0.7557   -0.3170 N   0  0  0  0  0  0  0  0  0  0  0  0
    0.8723    0.8653   -0.5066 N   0  0  0  0  0  0  0  0  0  0  0  0
    1.7440    0.5488    0.4844 C   0  0  0  0  0  0  0  0  0  0  0  0
  1  2  4  0
  2  3  4  0
  3  4  4  0
  4  5  4  0
  5  6  4  0
  6  1  4  0
M  END
$$$$

     RDKit          3D

  4  3  0  0  0  0  0  0  0  0999 V2000
    1.8272   -2.8664   -1.5408 Cl  0  0  0  0  0  0  0  0  0  0  0  0
    0.8517   -1.5545   -0.9235 N   0  0  0  0  0  0  0  0  0  0  0  0
   -0.4863   -1.4055   -1.3567 N   0  0  0  0  0  0  0  0  0  0  0  0
   -1.1647   -2.5050   -2.5316 Cl  0  0  0  0  0  0  0  0  0  0  0  0
  1  2  1  0
  2  3  1  0
  3  4  1  0
M  END
$$$$

     RDKit          3D

  6  6  0  0  0  0  0  0  0  0999 V2000
   -0.6464    1.2507    1.7302 N   0  0  0  0  0  0  0  0  0  0  0  0
    0.6660    1.0554    1.8489 N   0  0  0  0  0  0  0  0  0  0  0  0
    1.3105    0.1688    1.0468 C   0  0  0  0  0  0  0  0  0  0  0  0
    0.5828   -0.5373    0.1447 N   0  0  0  0  0  0  0  0  0  0  0  0
   -0.7291   -0.3420    0.0261 N   0  0  0  0  0  0  0  0  0  0  0  0
   -1.3683    0.5675    0.8046 C   0  0  0  0  0  0  0  0  0  0  0  0
  1  2  4  0
  2  3  4  0
  3  4  4  0
  4  5  4  0
  5  6  4  0
  6  1  4  0
M  END
$$$$

     RDKit          3D

  3  2  0  0  0  0  0  0  0  0999 V2000
    0.0982    0.0426    1.6969 F   0  0  0  0  0  0  0  0  0  0  0  0
   -0.3983    0.1037    0.4333 C   0  0  0  0  0  0  0  0  0  0  0  0
    0.4194   -0.0957   -0.6145 C   0  0  0  0  0  0  0  0  0  0  0  0
  1  2  1  0
  2  3  2  0
M  END
$$$$

     RDKit          3D

  6  5  0  0  0  0  0  0  0  0999 V2000
    3.1030   -1.8874    2.5687 C   0  0  0  0  0  0  0  0  0  0  0  0
    2.2724   -0.6089    2.6408 C   0  0  0  0  0  0  0  0  0  0  0  0
    1.3098   -0.5255    1.4734 C   0  0  0  0  0  0  0  0  0  0  0  0
    0.0480   -1.0417    1.5173 C   0  0  0  0  0  0  0  0  0  0  0  0
   -0.5279   -1.6967    2.7568 C   0  0  0  0  0  0  0  0  0  0  0  0
   -1.2300   -0.6664    3.6373 C   0  0  0  0  0  0  0  0  0  0  0  0
  1  2  1  0
  2  3  1  0
  3  4  2  0
  4  5  1  0
  5  6  1  0
M  END
$$$$

     RDKit          3D

  4  3  0  0  0  0  0  0  0  0999 V2000
   -1.8467    2.6453    0.9609 C   0  0  0  0  0  0  0  0  0  0  0  0
   -1.1450    2.6531   -0.3935 C   0  0  0  0  0  0  0  0  0  0  0  0
   -0.4066    1.3587   -0.6281 C   0  0  0  0  0  0  0  0  0  0  0  0
    0.8035    1.1769   -0.0593 C   0  0  0  0  0  0  0  0  0  0  0  0
  1  2  1  0
  2  3  1  0
  3  4  2  0
M  END
$$$$

     RDKit          3D

  3  2  0  0  0  0  0  0  0  0999 V2000
   -0.0032   -0.3113    1.8305 F   0  0  0  0  0  0  0  0  0  0  0  0
   -0.4469   -0.0601    0.5713 C   0  0  0  0  0  0  0  0  0  0  0  0
    0.4319    0.0372   -0.4408 C   0  0  0  0  0  0  0  0  0  0  0  0
  1  2  1  0
  2  3  2  0
M  END
$$$$

     RDKit          3D

  6  6  0  0  0  0  0  0  0  0999 V2000
    1.3466    1.4422    1.3527 N   0  0  0  0  0  0  0  0  0  0  0  0
    0.0502    1.1716    1.2091 N   0  0  0  0  0  0  0  0  0  0  0  0
   -0.3638    0.1838    0.3743 C   0  0  0  0  0  0  0  0  0  0  0  0
    0.5727   -0.5385   -0.2906 N   0  0  0  0  0  0  0  0  0  0  0  0
    1.8691   -0.2682   -0.1478 N   0  0  0  0  0  0  0  0  0  0  0  0
    2.2842    0.7304    0.6744 C   0  0  0  0  0  0  0  0  0  0  0  0
  1  2  4  0
  2  3  4  0
  3  4  4  0
  4  5  4  0
  5  6  4  0
  6  1  4  0
M  END
$$$$

     RDKit          3D

  6  6  0  0  0  0  0  0  0  0999 V2000
   -1.4121   -0.0305    0.0540 C   0  0  0  0  0  0  0  0  0  0  0  0
   -0.7083   -0.9998   -0.6814 C   0  0  0  0  0  0  0  0  0  0  0  0
    0.6875   -0.9697   -0.7442 C   0  0  0  0  0  0  0  0  0  0  0  0
    1.4121    0.0304   -0.0730 C   0  0  0  0  0  0  0  0  0  0  0  0
    0.7083    0.9998    0.6623 C   0  0  0  0  0  0  0  0  0  0  0  0
   -0.6875    0.9697    0.7251 C   0  0  0  0  0  0  0  0  0  0  0  0
  1  2  4  0
  2  3  4  0
  3  4  4  0
  4  5  4  0
  5  6  4  0
  6  1  4  0
M  END
$$$$

     RDKit          3D

  7  7  0  0  0  0  0  0  0  0999 V2000
    1.0515   -1.7849    1.7614 C   0  0  0  0  0  0  0  0  0  0  0  0
    0.3798   -0.8144    0.8248 C   0  0  0  0  0  0  0  0  0  0  0  0
    1.1192   -0.0308   -0.0958 C   0  0  0  0  0  0  0  0  0  0  0  0
    0.4370    0.8273   -0.9732 C   0  0  0  0  0  0  0  0  0  0  0  0
   -0.9524    0.9414   -0.9197 C   0  0  0  0  0  0  0  0  0  0  0  0
   -1.6869    0.2048    0.0178 C   0  0  0  0  0  0  0  0  0  0  0  0
   -1.0174   -0.6758    0.8799 C   0  0  0  0  0  0  0  0  0  0  0  0
  1  2  1  0
  2  3  4  0
  3  4  4  0
  4  5  4  0
  5  6  4  0
  6  7  4  0
  7  2  4  0
M  END
$$$$

     RDKit          3D

  6  6  0  0  0  0  0  0  0  0999 V2000
    0.1087    0.5298    0.9737 N   0  0  0  0  0  0  0  0  0  0  0  0
   -1.2211    0.5807    0.9167 N   0  0  0  0  0  0  0  0  0  0  0  0
   -1.8872    0.0719   -0.1507 C   0  0  0  0  0  0  0  0  0  0  0  0
   -1.1728   -0.4895   -1.1588 N   0  0  0  0  0  0  0  0  0  0  0  0
    0.1570   -0.5399   -1.1017 N   0  0  0  0  0  0  0  0  0  0  0  0
    0.8268   -0.0315   -0.0343 C   0  0  0  0  0  0  0  0  0  0  0  0
  1  2  4  0
  2  3  4  0
  3  4  4  0
  4  5  4  0
  5  6  4  0
  6  1  4  0
M  END
$$$$

     RDKit          3D

  4  3  0  0  0  0  0  0  0  0999 V2000
   -1.7878    2.4187    0.9593 C   0  0  0  0  0  0  0  0  0  0  0  0
   -1.3497    1.0988    1.5892 C   0  0  0  0  0  0  0  0  0  0  0  0
   -0.3418    0.3879    0.7238 C   0  0  0  0  0  0  0  0  0  0  0  0
    0.9149    0.8518    0.6292 C   0  0  0  0  0  0  0  0  0  0  0  0
  1  2  1  0
  2  3  1  0
  3  4  2  0
M  END
$$$$

     RDKit          3D

  6  6  0  0  0  0  0  0  0  0999 V2000
    0.6535   -1.1983   -0.1602 N   0  0  0  0  0  0  0  0  0  0  0  0
   -0.6780   -1.1828   -0.1337 N   0  0  0  0  0  0  0  0  0  0  0  0
   -1.3585   -0.0180    0.0228 C   0  0  0  0  0  0  0  0  0  0  0  0
   -0.6455    1.1313    0.1517 N   0  0  0  0  0  0  0  0  0  0  0  0
    0.6861    1.1158    0.1252 N   0  0  0  0  0  0  0  0  0  0  0  0
    1.3665   -0.0497   -0.0314 C   0  0  0  0  0  0  0  0  0  0  0  0
  1  2  4  0
  2  3  4  0
  3  4  4  0
  4  5  4  0
  5  6  4  0
  6  1  4  0
M  END
$$$$

     RDKit          3D

  6  6  0  0  0  0  0  0  0  0999 V2000
    0.7143   -0.7151    0.9467 N   0  0  0  0  0  0  0  0  0  0  0  0
   -0.6157   -0.7204    1.0176 N   0  0  0  0  0  0  0  0  0  0  0  0
   -1.3636   -0.0056    0.1371 C   0  0  0  0  0  0  0  0  0  0  0  0
   -0.7201    0.7152   -0.8178 N   0  0  0  0  0  0  0  0  0  0  0  0
    0.6099    0.7211   -0.8894 N   0  0  0  0  0  0  0  0  0  0  0  0
    1.3564    0.0059   -0.0086 C   0  0  0  0  0  0  0  0  0  0  0  0
  1  2  4  0
  2  3  4  0
  3  4  4  0
  4  5  4  0
  5  6  4  0
  6  1  4  0
M  END
$$$$

     RDKit          3D

  8  8  0  0  0  0  0  0  0  0999 V2000
   -1.3361    0.9672   -2.2353 F   0  0  0  0  0  0  0  0  0  0  0  0
   -0.6902    0.5090   -1.1329 C   0  0  0  0  0  0  0  0  0  0  0  0
    0.7053    0.4299   -1.1519 C   0  0  0  0  0  0  0  0  0  0  0  0
    1.4100   -0.0811   -0.0493 C   0  0  0  0  0  0  0  0  0  0  0  0
    0.6902   -0.5090    1.0819 C   0  0  0  0  0  0  0  0  0  0  0  0
    1.3361   -0.9672    2.1843 F   0  0  0  0  0  0  0  0  0  0  0  0
   -0.7053   -0.4300    1.1009 C   0  0  0  0  0  0  0  0  0  0  0  0
   -1.4100    0.0811   -0.0017 C   0  0  0  0  0  0  0  0  0  0  0  0
  1  2  1  0
  2  3  4  0
  3  4  4  0
  4  5  4  0
  5  6  1  0
  5  7  4  0
  7  8  4  0
  8  2  4  0
M  END
$$$$

     RDKit          3D

  6  6  0  0  0  0  0  0  0  0999 V2000
   -1.4025    0.0089   -0.0091 C   0  0  0  0  0  0  0  0  0  0  0  0
   -0.6888    0.7508   -0.9652 C   0  0  0  0  0  0  0  0  0  0  0  0
    0.7088    0.7470   -0.9670 C   0  0  0  0  0  0  0  0  0  0  0  0
    1.4211    0.0014   -0.0128 C   0  0  0  0  0  0  0  0  0  0  0  0
    0.7073   -0.7506    0.9354 C   0  0  0  0  0  0  0  0  0  0  0  0
   -0.6903   -0.7469    0.9372 C   0  0  0  0  0  0  0  0  0  0  0  0
  1  2  4  0
  2  3  4  0
  3  4  4  0
  4  5  4  0
  5  6  4  0
  6  1  4  0
M  END
$$$$

     RDKit          3D

  9  9  0  0  0  0  0  0  0  0999 V2000
    1.3334   -0.7104   -2.2379 F   0  0  0  0  0  0  0  0  0  0  0  0
    0.6871   -0.3762   -1.0918 C   0  0  0  0  0  0  0  0  0  0  0  0
   -0.7101   -0.3622   -1.0773 C   0  0  0  0  0  0  0  0  0  0  0  0
   -1.4090    0.0041    0.0842 C   0  0  0  0  0  0  0  0  0  0  0  0
   -0.6845    0.3590    1.2370 C   0  0  0  0  0  0  0  0  0  0  0  0
   -1.3314    0.6870    2.3848 F   0  0  0  0  0  0  0  0  0  0  0  0
    0.7146    0.3454    1.2242 C   0  0  0  0  0  0  0  0  0  0  0  0
    1.3912    0.6646    2.3573 F   0  0  0  0  0  0  0  0  0  0  0  0
    1.4110   -0.0218    0.0594 C   0  0  0  0  0  0  0  0  0  0  0  0
  1  2  1  0
  2  3  4  0
  3  4  4  0
  4  5  4  0
  5  6  1  0
  5  7  4  0
  7  8  1  0
  7  9  4  0
  9  2  4  0
M  END
$$$$

     RDKit          3D

  9  9  0  0  0  0  0  0  0  0999 V2000
    1.1720    0.5835   -2.4209 F   0  0  0  0  0  0  0  0  0  0  0  0
    0.6035    0.2805   -1.2260 C   0  0  0  0  0  0  0  0  0  0  0  0
   -0.7896    0.2293   -1.1284 C   0  0  0  0  0  0  0  0  0  0  0  0
   -1.4087   -0.0535    0.0991 C   0  0  0  0  0  0  0  0  0  0  0  0
   -0.6110   -0.2929    1.2321 C   0  0  0  0  0  0  0  0  0  0  0  0
   -1.1826   -0.6074    2.4229 F   0  0  0  0  0  0  0  0  0  0  0  0
    0.7840   -0.2421    1.1367 C   0  0  0  0  0  0  0  0  0  0  0  0
    1.5338   -0.5025    2.2384 F   0  0  0  0  0  0  0  0  0  0  0  0
    1.4020    0.0465   -0.0930 C   0  0  0  0  0  0  0  0  0  0  0  0
  1  2  1  0
  2  3  4  0
  3  4  4  0
  4  5  4  0
  5  6  1  0
  5  7  4  0
  7  8  1  0
  7  9  4  0
  9  2  4  0
M  END
$$$$

     RDKit          3D

  6  6  0  0  0  0  0  0  0  0999 V2000
   -1.4110    0.0821   -0.0971 C   0  0  0  0  0  0  0  0  0  0  0  0
   -0.8069    0.8809    0.8883 C   0  0  0  0  0  0  0  0  0  0  0  0
    0.5849    0.9317    1.0049 C   0  0  0  0  0  0  0  0  0  0  0  0
    1.4005    0.1847    0.1386 C   0  0  0  0  0  0  0  0  0  0  0  0
    0.7968   -0.6043   -0.8547 C   0  0  0  0  0  0  0  0  0  0  0  0
   -0.5950   -0.6550   -0.9714 C   0  0  0  0  0  0  0  0  0  0  0  0
  1  2  4  0
  2  3  4  0
  3  4  4  0
  4  5  4  0
  5  6  4  0
  6  1  4  0
M  END
$$$$

     RDKit          3D

  8  8  0  0  0  0  0  0  0  0999 V2000
   -1.2396    2.2473    0.9786 F   0  0  0  0  0  0  0  0  0  0  0  0
   -0.6431    1.1393    0.4694 C   0  0  0  0  0  0  0  0  0  0  0  0
    0.7527    1.0665    0.4547 C   0  0  0  0  0  0  0  0  0  0  0  0
    1.4059   -0.0782   -0.0324 C   0  0  0  0  0  0  0  0  0  0  0  0
    0.6334   -1.1516   -0.5149 C   0  0  0  0  0  0  0  0  0  0  0  0
    1.2265   -2.2550   -1.0376 F   0  0  0  0  0  0  0  0  0  0  0  0
   -0.7625   -1.0781   -0.5001 C   0  0  0  0  0  0  0  0  0  0  0  0
   -1.4141    0.0639   -0.0071 C   0  0  0  0  0  0  0  0  0  0  0  0
  1  2  1  0
  2  3  4  0
  3  4  4  0
  4  5  4  0
  5  6  1  0
  5  7  4  0
  7  8  4  0
  8  2  4  0
M  END
$$$$

     RDKit          3D

  8  8  0  0  0  0  0  0  0  0999 V2000
    1.5114   -2.1946    0.5643 F   0  0  0  0  0  0  0  0  0  0  0  0
    0.7797   -1.1154    0.1855 C   0  0  0  0  0  0  0  0  0  0  0  0
    1.4164    0.0588   -0.2545 C   0  0  0  0  0  0  0  0  0  0  0  0
    0.6365    1.1734   -0.5990 C   0  0  0  0  0  0  0  0  0  0  0  0
   -0.7564    1.1163   -0.5146 C   0  0  0  0  0  0  0  0  0  0  0  0
   -1.3967   -0.0559   -0.0809 C   0  0  0  0  0  0  0  0  0  0  0  0
   -0.6162   -1.1732    0.2701 C   0  0  0  0  0  0  0  0  0  0  0  0
   -1.2033   -2.3086    0.7279 F   0  0  0  0  0  0  0  0  0  0  0  0
  1  2  1  0
  2  3  4  0
  3  4  4  0
  4  5  4  0
  5  6  4  0
  6  7  4  0
  7  8  1  0
  7  2  4  0
M  END
$$$$

     RDKit          3D

  8  8  0  0  0  0  0  0  0  0999 V2000
    1.2298    1.1991    2.1816 F   0  0  0  0  0  0  0  0  0  0  0  0
    0.6326    0.6153    1.1110 C   0  0  0  0  0  0  0  0  0  0  0  0
    1.3928   -0.1147    0.1786 C   0  0  0  0  0  0  0  0  0  0  0  0
    0.7402   -0.7362   -0.8980 C   0  0  0  0  0  0  0  0  0  0  0  0
   -0.6449   -0.6323   -1.0432 C   0  0  0  0  0  0  0  0  0  0  0  0
   -1.4064    0.0953   -0.1148 C   0  0  0  0  0  0  0  0  0  0  0  0
   -0.7555    0.7195    0.9656 C   0  0  0  0  0  0  0  0  0  0  0  0
   -1.4677    1.4014    1.8990 F   0  0  0  0  0  0  0  0  0  0  0  0
  1  2  1  0
  2  3  4  0
  3  4  4  0
  4  5  4  0
  5  6  4  0
  6  7  4  0
  7  8  1  0
  7  2  4  0
M  END
$$$$

     RDKit          3D

  7  7  0  0  0  0  0  0  0  0999 V2000
    1.3210    0.0519   -2.4219 F   0  0  0  0  0  0  0  0  0  0  0  0
    0.6819    0.0121   -1.2250 C   0  0  0  0  0  0  0  0  0  0  0  0
   -0.7139    0.0932   -1.1981 C   0  0  0  0  0  0  0  0  0  0  0  0
   -1.4070    0.0848    0.0239 C   0  0  0  0  0  0  0  0  0  0  0  0
   -0.6771    0.0050    1.2212 C   0  0  0  0  0  0  0  0  0  0  0  0
    0.7174   -0.0761    1.1969 C   0  0  0  0  0  0  0  0  0  0  0  0
    1.4108   -0.0739   -0.0245 C   0  0  0  0  0  0  0  0  0  0  0  0
  1  2  1  0
  2  3  4  0
  3  4  4  0
  4  5  4  0
  5  6  4  0
  6  7  4  0
  7  2  4  0
M  END
$$$$

     RDKit          3D

  8  8  0  0  0  0  0  0  0  0999 V2000
   -1.1853   -1.2495    2.1953 F   0  0  0  0  0  0  0  0  0  0  0  0
   -0.6149   -0.6507    1.1188 C   0  0  0  0  0  0  0  0  0  0  0  0
    0.7782   -0.5531    1.0561 C   0  0  0  0  0  0  0  0  0  0  0  0
    1.4027    0.0879   -0.0263 C   0  0  0  0  0  0  0  0  0  0  0  0
    0.6070    0.6345   -1.0495 C   0  0  0  0  0  0  0  0  0  0  0  0
    1.1773    1.2334   -2.1259 F   0  0  0  0  0  0  0  0  0  0  0  0
   -0.7861    0.5370   -0.9868 C   0  0  0  0  0  0  0  0  0  0  0  0
   -1.4107   -0.1040    0.0956 C   0  0  0  0  0  0  0  0  0  0  0  0
  1  2  1  0
  2  3  4  0
  3  4  4  0
  4  5  4  0
  5  6  1  0
  5  7  4  0
  7  8  4  0
  8  2  4  0
M  END
$$$$

     RDKit          3D

  9  9  0  0  0  0  0  0  0  0999 V2000
    1.1208    0.8116   -2.6313 C   0  0  0  0  0  0  0  0  0  0  0  0
    0.5274    0.6661   -1.2526 C   0  0  0  0  0  0  0  0  0  0  0  0
   -0.8586    0.7477   -1.0973 C   0  0  0  0  0  0  0  0  0  0  0  0
   -1.4562    0.5839    0.1554 C   0  0  0  0  0  0  0  0  0  0  0  0
   -0.6556    0.3340    1.2956 C   0  0  0  0  0  0  0  0  0  0  0  0
   -1.3067    0.0944    2.6430 C   0  0  0  0  0  0  0  0  0  0  0  0
    0.7599    0.3427    1.1683 C   0  0  0  0  0  0  0  0  0  0  0  0
    1.6359    0.1625    2.3931 C   0  0  0  0  0  0  0  0  0  0  0  0
    1.3461    0.4705   -0.1188 C   0  0  0  0  0  0  0  0  0  0  0  0
  1  2  1  0
  2  3  4  0
  3  4  4  0
  4  5  4  0
  5  6  1  0
  5  7  4  0
  7  8  1  0
  7  9  4  0
  9  2  4  0
M  END
$$$$

     RDKit          3D

  8  8  0  0  0  0  0  0  0  0999 V2000
    1.2656   -2.4510    0.1410 F   0  0  0  0  0  0  0  0  0  0  0  0
    0.6569   -1.2384    0.0954 C   0  0  0  0  0  0  0  0  0  0  0  0
   -0.7397   -1.1794    0.0786 C   0  0  0  0  0  0  0  0  0  0  0  0
   -1.4035    0.0573    0.0057 C   0  0  0  0  0  0  0  0  0  0  0  0
   -0.6399    1.2361   -0.0480 C   0  0  0  0  0  0  0  0  0  0  0  0
    0.7568    1.1816   -0.0313 C   0  0  0  0  0  0  0  0  0  0  0  0
    1.4622    2.3413   -0.0483 F   0  0  0  0  0  0  0  0  0  0  0  0
    1.4180   -0.0576    0.0364 C   0  0  0  0  0  0  0  0  0  0  0  0
  1  2  1  0
  2  3  4  0
  3  4  4  0
  4  5  4  0
  5  6  4  0
  6  7  1  0
  6  8  4  0
  8  2  4  0
M  END
$$$$

     RDKit          3D

  7  7  0  0  0  0  0  0  0  0999 V2000
    1.3284   -1.3756   -1.8672 F   0  0  0  0  0  0  0  0  0  0  0  0
    0.6844   -0.7101   -0.8746 C   0  0  0  0  0  0  0  0  0  0  0  0
   -0.7139   -0.6983   -0.8618 C   0  0  0  0  0  0  0  0  0  0  0  0
   -1.4138    0.0045    0.1331 C   0  0  0  0  0  0  0  0  0  0  0  0
   -0.6888    0.7062    1.1102 C   0  0  0  0  0  0  0  0  0  0  0  0
    0.7083    0.6960    1.0995 C   0  0  0  0  0  0  0  0  0  0  0  0
    1.4087   -0.0116    0.1089 C   0  0  0  0  0  0  0  0  0  0  0  0
  1  2  1  0
  2  3  4  0
  3  4  4  0
  4  5  4  0
  5  6  4  0
  6  7  4  0
  7  2  4  0
M  END
$$$$

     RDKit          3D

  3  2  0  0  0  0  0  0  0  0999 V2000
   -0.2087    1.6870   -0.7489 F   0  0  0  0  0  0  0  0  0  0  0  0
    0.3891    0.5794   -0.2377 C   0  0  0  0  0  0  0  0  0  0  0  0
   -0.3570   -0.4274    0.2449 C   0  0  0  0  0  0  0  0  0  0  0  0
  1  2  1  0
  2  3  2  0
M  END
$$$$

     RDKit          3D

  8  8  0  0  0  0  0  0  0  0999 V2000
    1.4772    0.6944   -2.3431 F   0  0  0  0  0  0  0  0  0  0  0  0
    0.7599    0.3585   -1.2406 C   0  0  0  0  0  0  0  0  0  0  0  0
   -0.6322    0.2721   -1.3343 C   0  0  0  0  0  0  0  0  0  0  0  0
   -1.4025   -0.0883   -0.2162 C   0  0  0  0  0  0  0  0  0  0  0  0
   -0.7531   -0.3722    0.9967 C   0  0  0  0  0  0  0  0  0  0  0  0
    0.6389   -0.2885    1.0943 C   0  0  0  0  0  0  0  0  0  0  0  0
    1.2351   -0.5494    2.2856 F   0  0  0  0  0  0  0  0  0  0  0  0
    1.4071    0.0794   -0.0243 C   0  0  0  0  0  0  0  0  0  0  0  0
  1  2  1  0
  2  3  4  0
  3  4  4  0
  4  5  4  0
  5  6  4  0
  6  7  1  0
  6  8  4  0
  8  2  4  0
M  END
$$$$

     RDKit          3D

  3  2  0  0  0  0  0  0  0  0999 V2000
    0.2535   -0.0698    1.8307 F   0  0  0  0  0  0  0  0  0  0  0  0
   -0.3670   -0.1751    0.6267 C   0  0  0  0  0  0  0  0  0  0  0  0
    0.3612   -0.1826   -0.5027 C   0  0  0  0  0  0  0  0  0  0  0  0
  1  2  1  0
  2  3  2  0
M  END
$$$$

     RDKit          3D

  6  6  0  0  0  0  0  0  0  0999 V2000
    1.5065    0.7183   -1.7415 N   0  0  0  0  0  0  0  0  0  0  0  0
    0.1784    0.7352   -1.6403 N   0  0  0  0  0  0  0  0  0  0  0  0
   -0.4440    0.1439   -0.5883 C   0  0  0  0  0  0  0  0  0  0  0  0
    0.3138   -0.4866    0.3438 N   0  0  0  0  0  0  0  0  0  0  0  0
    1.6418   -0.5031    0.2434 N   0  0  0  0  0  0  0  0  0  0  0  0
    2.2677    0.1017   -0.8000 C   0  0  0  0  0  0  0  0  0  0  0  0
  1  2  4  0
  2  3  4  0
  3  4  4  0
  4  5  4  0
  5  6  4  0
  6  1  4  0
M  END
$$$$

     RDKit          3D

  7  7  0  0  0  0  0  0  0  0999 V2000
   -1.3920    1.8299    1.5656 F   0  0  0  0  0  0  0  0  0  0  0  0
   -0.7175    0.9194    0.8182 C   0  0  0  0  0  0  0  0  0  0  0  0
   -1.4066    0.0449   -0.0422 C   0  0  0  0  0  0  0  0  0  0  0  0
   -0.6732   -0.8593   -0.8277 C   0  0  0  0  0  0  0  0  0  0  0  0
    0.7217   -0.8920   -0.7561 C   0  0  0  0  0  0  0  0  0  0  0  0
    1.4113   -0.0242    0.1066 C   0  0  0  0  0  0  0  0  0  0  0  0
    0.6787    0.8848    0.8881 C   0  0  0  0  0  0  0  0  0  0  0  0
  1  2  1  0
  2  3  4  0
  3  4  4  0
  4  5  4  0
  5  6  4  0
  6  7  4  0
  7  2  4  0
M  END
$$$$

     RDKit          3D

  6  6  0  0  0  0  0  0  0  0999 V2000
    1.4130   -1.0669   -0.6575 N   0  0  0  0  0  0  0  0  0  0  0  0
    0.0844   -1.1554   -0.6896 N   0  0  0  0  0  0  0  0  0  0  0  0
   -0.6892   -0.2434   -0.0448 C   0  0  0  0  0  0  0  0  0  0  0  0
   -0.0747    0.7576    0.6379 N   0  0  0  0  0  0  0  0  0  0  0  0
    1.2539    0.8456    0.6700 N   0  0  0  0  0  0  0  0  0  0  0  0
    2.0262   -0.0585    0.0148 C   0  0  0  0  0  0  0  0  0  0  0  0
  1  2  4  0
  2  3  4  0
  3  4  4  0
  4  5  4  0
  5  6  4  0
  6  1  4  0
M  END
$$$$

     RDKit          3D

  7  7  0  0  0  0  0  0  0  0999 V2000
    1.4903   -2.0950    1.2491 C   0  0  0  0  0  0  0  0  0  0  0  0
    0.7536   -0.9253    0.6523 C   0  0  0  0  0  0  0  0  0  0  0  0
   -0.6471   -0.9678    0.5534 C   0  0  0  0  0  0  0  0  0  0  0  0
   -1.3562    0.1073    0.0009 C   0  0  0  0  0  0  0  0  0  0  0  0
   -0.6641    1.2371   -0.4501 C   0  0  0  0  0  0  0  0  0  0  0  0
    0.7260    1.2958   -0.3472 C   0  0  0  0  0  0  0  0  0  0  0  0
    1.4444    0.2247    0.2046 C   0  0  0  0  0  0  0  0  0  0  0  0
  1  2  1  0
  2  3  4  0
  3  4  4  0
  4  5  4  0
  5  6  4  0
  6  7  4  0
  7  2  4  0
M  END
$$$$

     RDKit          3D

  3  2  0  0  0  0  0  0  0  0999 V2000
    1.2186    3.5449   -0.0096 Cl  0  0  0  0  0  0  0  0  0  0  0  0
    0.5317    1.9327   -0.1502 C   0  0  0  0  0  0  0  0  0  0  0  0
   -0.7698    1.8166   -0.4615 C   0  0  0  0  0  0  0  0  0  0  0  0
  1  2  1  0
  2  3  2  0
M  END
$$$$

     RDKit          3D

  6  6  0  0  0  0  0  0  0  0999 V2000
   -0.0412    1.4028   -0.0870 N   0  0  0  0  0  0  0  0  0  0  0  0
    1.2861    1.2912   -0.0861 N   0  0  0  0  0  0  0  0  0  0  0  0
    1.8823    0.0879    0.1191 C   0  0  0  0  0  0  0  0  0  0  0  0
    1.0932   -0.9988    0.3233 N   0  0  0  0  0  0  0  0  0  0  0  0
   -0.2341   -0.8871    0.3224 N   0  0  0  0  0  0  0  0  0  0  0  0
   -0.8306    0.3161    0.1173 C   0  0  0  0  0  0  0  0  0  0  0  0
  1  2  4  0
  2  3  4  0
  3  4  4  0
  4  5  4  0
  5  6  4  0
  6  1  4  0
M  END
$$$$

     RDKit          3D

  6  6  0  0  0  0  0  0  0  0999 V2000
    0.6892   -0.0554   -1.0515 N   0  0  0  0  0  0  0  0  0  0  0  0
   -0.6405    0.0177   -1.0782 N   0  0  0  0  0  0  0  0  0  0  0  0
   -1.3589    0.0750    0.0734 C   0  0  0  0  0  0  0  0  0  0  0  0
   -0.6862    0.0558    1.2535 N   0  0  0  0  0  0  0  0  0  0  0  0
    0.6435   -0.0173    1.2812 N   0  0  0  0  0  0  0  0  0  0  0  0
    1.3603   -0.0744    0.1291 C   0  0  0  0  0  0  0  0  0  0  0  0
  1  2  4  0
  2  3  4  0
  3  4  4  0
  4  5  4  0
  5  6  4  0
  6  1  4  0
M  END
$$$$

     RDKit          3D

  8  8  0  0  0  0  0  0  0  0999 V2000
   -1.0491    0.6875    2.3267 C   0  0  0  0  0  0  0  0  0  0  0  0
   -0.4224    0.2244    1.0274 C   0  0  0  0  0  0  0  0  0  0  0  0
   -1.2414   -0.1158   -0.0818 C   0  0  0  0  0  0  0  0  0  0  0  0
   -0.6488   -0.4486   -1.3058 C   0  0  0  0  0  0  0  0  0  0  0  0
    0.7337   -0.4744   -1.4416 C   0  0  0  0  0  0  0  0  0  0  0  0
    1.5621   -0.2003   -0.3493 C   0  0  0  0  0  0  0  0  0  0  0  0
    0.9920    0.1155    0.9098 C   0  0  0  0  0  0  0  0  0  0  0  0
    1.8869    0.3725    2.1049 C   0  0  0  0  0  0  0  0  0  0  0  0
  1  2  1  0
  2  3  4  0
  3  4  4  0
  4  5  4  0
  5  6  4  0
  6  7  4  0
  7  8  1  0
  7  2  4  0
M  END
$$$$

     RDKit          3D

  7  7  0  0  0  0  0  0  0  0999 V2000
   -1.2144    0.9235    2.3825 C   0  0  0  0  0  0  0  0  0  0  0  0
   -0.4408    0.5769    1.1380 C   0  0  0  0  0  0  0  0  0  0  0  0
    0.9632    0.5587    1.1823 C   0  0  0  0  0  0  0  0  0  0  0  0
    1.7096    0.2375    0.0404 C   0  0  0  0  0  0  0  0  0  0  0  0
    1.0505   -0.0629   -1.1575 C   0  0  0  0  0  0  0  0  0  0  0  0
   -0.3429   -0.0349   -1.2179 C   0  0  0  0  0  0  0  0  0  0  0  0
   -1.0988    0.2888   -0.0809 C   0  0  0  0  0  0  0  0  0  0  0  0
  1  2  1  0
  2  3  4  0
  3  4  4  0
  4  5  4  0
  5  6  4  0
  6  7  4  0
  7  2  4  0
M  END
$$$$

     RDKit          3D

  3  2  0  0  0  0  0  0  0  0999 V2000
   -2.0741   -1.9030   -1.0817 N   0  0  0  0  0  0  0  0  0  0  0  0
   -0.9814   -1.0857   -0.6533 C   0  0  0  0  0  0  0  0  0  0  0  0
    0.2612   -1.3538   -1.0797 C   0  0  0  0  0  0  0  0  0  0  0  0
  1  2  1  0
  2  3  2  0
M  END
$$$$

     RDKit          3D

  8  8  0  0  0  0  0  0  0  0999 V2000
   -1.5107   -2.1071   -1.0109 F   0  0  0  0  0  0  0  0  0  0  0  0
   -0.7724   -1.0720   -0.5344 C   0  0  0  0  0  0  0  0  0  0  0  0
   -1.4011    0.0802   -0.0271 C   0  0  0  0  0  0  0  0  0  0  0  0
   -0.6105    1.1187    0.4901 C   0  0  0  0  0  0  0  0  0  0  0  0
    0.7818    1.0113    0.5019 C   0  0  0  0  0  0  0  0  0  0  0  0
    1.4124   -0.1369   -0.0033 C   0  0  0  0  0  0  0  0  0  0  0  0
    0.6230   -1.1796   -0.5226 C   0  0  0  0  0  0  0  0  0  0  0  0
    1.2015   -2.3165   -0.9877 F   0  0  0  0  0  0  0  0  0  0  0  0
  1  2  1  0
  2  3  4  0
  3  4  4  0
  4  5  4  0
  5  6  4  0
  6  7  4  0
  7  8  1  0
  7  2  4  0
M  END
$$$$

     RDKit          3D

  9  9  0  0  0  0  0  0  0  0999 V2000
    1.5852    0.3490    2.7055 Cl  0  0  0  0  0  0  0  0  0  0  0  0
    0.7201    0.2931    1.1725 C   0  0  0  0  0  0  0  0  0  0  0  0
   -0.6740    0.2338    1.1949 C   0  0  0  0  0  0  0  0  0  0  0  0
   -1.4061    0.1780    0.0024 C   0  0  0  0  0  0  0  0  0  0  0  0
   -0.7300    0.1860   -1.2339 C   0  0  0  0  0  0  0  0  0  0  0  0
   -1.6407    0.0875   -2.7445 Cl  0  0  0  0  0  0  0  0  0  0  0  0
    0.6762    0.2470   -1.2630 C   0  0  0  0  0  0  0  0  0  0  0  0
    1.5266    0.2589   -2.8119 Cl  0  0  0  0  0  0  0  0  0  0  0  0
    1.4049    0.2985   -0.0566 C   0  0  0  0  0  0  0  0  0  0  0  0
  1  2  1  0
  2  3  4  0
  3  4  4  0
  4  5  4  0
  5  6  1  0
  5  7  4  0
  7  8  1  0
  7  9  4  0
  9  2  4  0
M  END
$$$$

     RDKit          3D

  8  8  0  0  0  0  0  0  0  0999 V2000
   -1.4757   -2.8010    0.0019 Cl  0  0  0  0  0  0  0  0  0  0  0  0
   -0.6731   -1.2344    0.0560 C   0  0  0  0  0  0  0  0  0  0  0  0
    0.7222   -1.1940   -0.0288 C   0  0  0  0  0  0  0  0  0  0  0  0
    1.4090    0.0305    0.0214 C   0  0  0  0  0  0  0  0  0  0  0  0
    0.6732    1.2191    0.1600 C   0  0  0  0  0  0  0  0  0  0  0  0
   -0.7224    1.1897    0.2451 C   0  0  0  0  0  0  0  0  0  0  0  0
   -1.5897    2.7144    0.4009 Cl  0  0  0  0  0  0  0  0  0  0  0  0
   -1.4064   -0.0399    0.1910 C   0  0  0  0  0  0  0  0  0  0  0  0
  1  2  1  0
  2  3  4  0
  3  4  4  0
  4  5  4  0
  5  6  4  0
  6  7  1  0
  6  8  4  0
  8  2  4  0
M  END
$$$$

     RDKit          3D

  7  7  0  0  0  0  0  0  0  0999 V2000
   -1.5185   -1.0945    2.5422 Cl  0  0  0  0  0  0  0  0  0  0  0  0
   -0.6865   -0.4944    1.1117 C   0  0  0  0  0  0  0  0  0  0  0  0
    0.7123   -0.4531    1.1139 C   0  0  0  0  0  0  0  0  0  0  0  0
    1.4095    0.0334   -0.0012 C   0  0  0  0  0  0  0  0  0  0  0  0
    0.6977    0.4849   -1.1210 C   0  0  0  0  0  0  0  0  0  0  0  0
   -0.6983    0.4466   -1.1283 C   0  0  0  0  0  0  0  0  0  0  0  0
   -1.3992   -0.0484   -0.0189 C   0  0  0  0  0  0  0  0  0  0  0  0
  1  2  1  0
  2  3  4  0
  3  4  4  0
  4  5  4  0
  5  6  4  0
  6  7  4  0
  7  2  4  0
M  END
$$$$

     RDKit          3D

  8  8  0  0  0  0  0  0  0  0999 V2000
   -1.6325   -1.2555    2.3062 Cl  0  0  0  0  0  0  0  0  0  0  0  0
   -0.7183   -0.5572    0.9660 C   0  0  0  0  0  0  0  0  0  0  0  0
   -1.3977    0.0093   -0.1310 C   0  0  0  0  0  0  0  0  0  0  0  0
   -0.6699    0.5662   -1.1891 C   0  0  0  0  0  0  0  0  0  0  0  0
    0.7236    0.5625   -1.1643 C   0  0  0  0  0  0  0  0  0  0  0  0
    1.4129    0.0034   -0.0798 C   0  0  0  0  0  0  0  0  0  0  0  0
    0.6899   -0.5610    0.9920 C   0  0  0  0  0  0  0  0  0  0  0  0
    1.5447   -1.2429    2.3792 Cl  0  0  0  0  0  0  0  0  0  0  0  0
  1  2  1  0
  2  3  4  0
  3  4  4  0
  4  5  4  0
  5  6  4  0
  6  7  4  0
  7  8  1  0
  7  2  4  0
M  END
$$$$

     RDKit          3D

  4  3  0  0  0  0  0  0  0  0999 V2000
   -0.6075    0.0133    1.5286 F   0  0  0  0  0  0  0  0  0  0  0  0
    0.2360   -0.0042    0.4647 C   0  0  0  0  0  0  0  0  0  0  0  0
   -0.2416    0.0043   -0.7822 C   0  0  0  0  0  0  0  0  0  0  0  0
    0.6020   -0.0131   -1.8461 F   0  0  0  0  0  0  0  0  0  0  0  0
  1  2  1  0
  2  3  2  0
  3  4  1  0
M  END
$$$$

     RDKit          3D

  4  3  0  0  0  0  0  0  0  0999 V2000
   -1.2714   -4.4704   -0.6662 C   0  0  0  0  0  0  0  0  0  0  0  0
   -1.1219   -3.5180   -1.8483 C   0  0  0  0  0  0  0  0  0  0  0  0
   -0.5729   -2.1886   -1.3944 C   0  0  0  0  0  0  0  0  0  0  0  0
    0.7611   -2.0330   -1.2625 C   0  0  0  0  0  0  0  0  0  0  0  0
  1  2  1  0
  2  3  1  0
  3  4  2  0
M  END
$$$$
