29

C -2.882082462 -2.610260725 0.003126087
N -1.877882600 -1.828160882 0.003826087
N -0.643182635 -2.311660767 0.005726087
C -4.224882603 -2.074660778 0.000526087
C -4.466782570 -0.696960926 -0.000573913
C -5.772482872 -0.248260900 -0.003373913
C -6.796882629 -1.187360883 -0.004973914
N -6.583683014 -2.492660761 -0.003773913
C -5.336782932 -2.921260834 -0.001073913
C -1.978482604 4.552639008 0.000726087
C -2.214882612 3.188239098 0.001326087
C -1.167482734 2.285439253 0.002026087
C 0.144917354 2.751639128 0.002126087
N 1.252617359 1.909239173 0.002626087
C 0.381417364 4.126439095 0.001526087
C -0.673882604 5.017438889 0.000826087
C 7.814517021 -0.495060921 -0.005873913
C 7.530117035 -1.850760937 -0.003973913
C 6.219817162 -2.286660910 -0.000573913
C 5.169317245 -1.368260860 0.000926087
N 3.874317408 -1.870960951 0.004026087
C 5.458317280 -0.006460905 -0.000873913
C 6.774017334 0.418339074 -0.004273913
O -1.750793576 -0.743685186 1.045330405
N 2.358581305 -0.319614232 0.930787563
O 0.052374326 0.551978469 -0.699163735
F 0.844736576 -0.889962018 2.245487928
C 1.032356977 0.063462391 1.683724761
Br 0.834511876 -0.155817330 1.985657573
