29

C -2.882082462 -2.610260725 0.003126087
N -1.877882600 -1.828160882 0.003826087
N -0.643182635 -2.311660767 0.005726087
C -4.224882603 -2.074660778 0.000526087
C -4.466782570 -0.696960926 -0.000573913
C -5.772482872 -0.248260900 -0.003373913
C -6.796882629 -1.187360883 -0.004973914
N -6.583683014 -2.492660761 -0.003773913
C -5.336782932 -2.921260834 -0.001073913
C -1.978482604 4.552639008 0.000726087
C -2.214882612 3.188239098 0.001326087
C -1.167482734 2.285439253 0.002026087
C 0.144917354 2.751639128 0.002126087
N 1.252617359 1.909239173 0.002626087
C 0.381417364 4.126439095 0.001526087
C -0.673882604 5.017438889 0.000826087
C 7.814517021 -0.495060921 -0.005873913
C 7.530117035 -1.850760937 -0.003973913
C 6.219817162 -2.286660910 -0.000573913
C 5.169317245 -1.368260860 0.000926087
N 3.874317408 -1.870960951 0.004026087
C 5.458317280 -0.006460905 -0.000873913
C 6.774017334 0.418339074 -0.004273913
C 1.423364520 0.210732251 -1.763489604
C 0.309051454 -2.209319592 -2.391619444
C 0.227047950 0.327674299 -1.510066271
S -0.972747028 0.939431965 -1.883324504
C -0.394019812 -0.928240299 -1.880540252
C 1.055728674 -0.281000137 -0.626466274
