29

O -7.891099930 -0.464500040 0.664600015
C -7.204400063 0.296900004 -0.067000002
O -7.867599964 1.197000027 -0.892899990
C -5.718400002 0.234099984 -0.046999998
C -5.043600082 -0.668399990 0.803600013
F -5.727099895 -1.499799967 1.630699992
C -3.646800041 -0.722500026 0.816799998
C -2.887700081 0.117899999 -0.012199998
C -3.555399895 1.016600013 -0.858500004
C -4.951900005 1.077000022 -0.879400015
F -5.543900013 1.960600019 -1.722300053
O 7.883100033 0.208700001 -0.753600001
C 7.193399906 -0.312200010 0.163100004
O 7.842000484 -0.951699913 1.213400006
C 5.715899944 -0.245000005 0.123999998
C 4.952099800 -0.828199983 1.148599982
C 3.556400299 -0.767000020 1.114899993
C 2.897300243 -0.119500004 0.058400005
C 3.658100128 0.461600006 -0.971300006
F 3.049600124 1.065400004 -2.023999929
C 5.054800034 0.398999989 -0.936699986
O 1.493584871 2.198359251 -0.017776199
Cl 1.368570328 -2.772525072 0.160136700
C -1.409607053 0.048583142 -0.015440993
C -0.629263043 1.155433893 -0.201052025
N 1.452487946 -0.089289077 0.040368393
C 0.806532264 1.183558226 -0.071823299
C -0.719401121 -1.152556419 0.176275760
C 0.665825963 -1.185949802 0.157696977
