29

C -2.617899895 -0.429699987 -2.599400043
C -3.442500114 -0.213799983 -1.355700016
C -4.842400074 -0.256099999 -1.447199941
C -5.645599842 -0.067100018 -0.313699991
C -7.120800018 -0.127999991 -0.426299989
O -7.848899841 0.041700006 0.587800026
O -7.724699974 -0.373699993 -1.654299974
C -5.033699989 0.179399997 0.924600005
C -3.636699915 0.250800014 1.038100004
C -3.022000074 0.523500025 2.387500048
C -2.831099987 0.047800004 -0.107000001
C 3.162600040 -0.111499995 -2.187700033
C 3.746099949 0.173400000 -0.828599989
C 5.138000011 0.307799995 -0.687099993
C 5.713399887 0.573499978 0.568099976
C 7.180200100 0.707199991 0.713400006
O 7.937399864 0.584500015 -0.286000013
O 7.743800163 0.970399976 1.956699967
C 4.877099991 0.711600065 1.686499953
C 3.493000031 0.592800021 1.554499984
C 2.916599989 0.328999996 0.304699987
S 1.045451641 -1.531772017 -0.058940750
N -0.760289431 0.788486838 0.626164317
C 0.508777738 1.077105522 0.424424648
C 1.469694853 0.046693817 0.208707020
N -1.449232101 0.059031531 -0.087571733
N -1.357630730 3.917126179 1.164553761
C 0.792581439 2.524211645 0.609036386
C -0.431477159 3.258499861 0.963233650
