29

O 6.734600067 0.624199986 -1.726500034
C 6.147299767 0.203800008 -0.694299996
O 6.903399944 -0.351799965 0.331600010
C 4.675499916 0.298600018 -0.574400008
C 4.026599884 -0.167300001 0.579999983
C 2.636100054 -0.081699997 0.699899971
F 2.054899931 -0.495899975 1.854599953
C 1.863600016 0.466899991 -0.344000012
C 2.516400099 0.949699998 -1.492400050
F 1.806699991 1.485599995 -2.518199921
C 3.906899929 0.860499978 -1.607200027
O -6.812200069 -1.379999995 0.564800024
C -6.124400139 -0.341800004 0.752900004
O -6.775000095 0.840200007 1.088999987
C -4.647799969 -0.371800005 0.619199991
C -3.905100107 0.801400006 0.838500023
C -2.513000011 0.798099995 0.716700017
C -1.832599998 -0.377799988 0.358000010
C -2.567500114 -1.555799961 0.164299995
C -3.960999966 -1.557100058 0.283899993
F -4.628799915 -2.719799995 0.072999999
O -1.357885957 -2.205488920 -2.565322399
C 0.369534135 0.651494086 -0.231066182
C -0.428389162 -0.445448697 -0.122440748
Cl 1.315310359 -1.988160729 -2.593995333
C -0.301841855 -1.285635352 -2.687315702
O 0.012655437 1.873945355 0.366440058
C -0.270488650 -0.340899020 -1.637699366
C -0.403694719 -0.664037228 -4.092024803
