29

O -7.814099789 1.294899940 -0.546500027
C -7.200300217 0.319499999 -0.038500000
O -7.938300133 -0.716199994 0.523500085
C -5.718100071 0.269800007 -0.036300000
C -5.059599876 -0.830100000 0.540799975
C -3.663500071 -0.901400089 0.555600047
F -3.064599991 -1.967000008 1.146000028
C -2.894700050 0.131999999 -0.007300001
C -3.548399925 1.231899977 -0.584399939
C -4.944600105 1.304700017 -0.601099968
F -5.530399799 2.386600018 -1.174299955
O 7.897999763 0.626699984 -0.433600008
C 7.193900108 -0.328599989 -0.011599999
O 7.830200195 -1.467200041 0.469899982
C 5.713200092 -0.247599989 -0.025300000
C 4.952700138 -1.328199983 0.454499990
C 3.556600094 -1.274899960 0.451099962
C 2.888000011 -0.140699983 -0.035000000
C 3.643300056 0.943700016 -0.508899987
C 5.041100025 0.894500017 -0.508400023
F 5.727600098 1.965000033 -0.982800007
C -0.680984139 0.420007288 -1.219533205
O 1.026611567 -1.500915766 1.806155324
C 0.631387055 -0.792411268 0.919780135
C -1.423851609 0.005573839 -0.122292332
C 0.715613067 0.440014601 -1.160777092
N -0.765073299 -0.603870332 0.838136554
C 1.409637332 -0.112390451 -0.103330441
Cl -1.484111786 0.847351670 -2.688394785
