26

F -5.425799847 -1.599499941 -2.541300058
C -4.854499817 -0.947100043 -1.500000000
C -3.463700056 -0.856000066 -1.409399986
C -2.878900051 -0.184400022 -0.323000014
C -3.718199968 0.391700000 0.649299979
F -3.203900099 1.088999987 1.694399953
C -5.105500221 0.276800007 0.517300010
F -5.925300121 0.831499994 1.443199992
N -5.638299942 -0.384500027 -0.543500006
F 3.046200037 -2.153900146 0.671100020
C 3.641299963 -0.957199931 0.433799982
C 5.031300068 -0.849099994 0.522400022
N 5.641900063 0.337500006 0.265799999
C 4.933599949 1.444300056 -0.081200004
F 5.583099842 2.608900070 -0.324000001
C 3.540699959 1.382799983 -0.183200002
F 2.840699911 2.499499798 -0.509199977
C 2.881000042 0.169400007 0.076800004
O -1.023113966 -1.095723033 -2.303675175
C -0.577420473 -0.453850985 -1.344313502
N -0.769169629 0.230941638 0.899246573
Cl 1.688264966 0.100666963 -2.703905344
C 0.799783230 -0.065212771 -1.251743555
C -1.408210635 -0.102644682 -0.220520765
N 0.596137941 0.204663694 1.035964727
C 1.399402142 0.092195094 -0.045915000
