31

O -7.763000011 1.291200042 0.950500011
C -7.194200039 0.493400037 0.158999994
O -7.984700203 -0.281500012 -0.681500018
C -5.710899830 0.384299994 0.124699995
C -4.907499790 1.186900020 0.962800026
F -5.460499763 2.082400084 1.820000052
C -3.514899969 1.079900026 0.925199986
C -2.887300014 0.178100020 0.053399999
C -3.681499958 -0.628899992 -0.779699981
F -3.109100103 -1.544299960 -1.603199959
C -5.076900005 -0.527400017 -0.746200025
F -5.800600052 -1.333099961 -1.564599991
O 7.783900261 -1.339499950 -0.763199985
C 7.188300133 -0.478899986 -0.062500000
O 7.944600105 0.388200015 0.718200028
C 5.708199978 -0.386200011 -0.065200001
C 5.070400238 0.586499989 0.724399984
C 3.676700115 0.694500029 0.739899993
F 3.099699974 1.664499998 1.494300008
C 2.889699936 -0.171200007 -0.039299998
C 3.522599936 -1.143499970 -0.829100013
C 4.916399956 -1.253900051 -0.845300019
F 5.481699944 -2.212699890 -1.622099996
O 1.024334192 -1.127343297 -2.040676832
N -1.480888724 0.096557103 -0.039954972
C 0.680538177 -0.769367218 -0.937731743
O -0.910424829 0.792945206 2.070616007
C -0.688506901 1.053371668 0.681573868
N 1.468679547 -0.036007889 -0.103913516
C -0.714211524 -1.058867455 -0.430384010
C 0.797362328 1.061375976 0.540377319
