29

O -7.785399914 0.749400020 -1.043499947
C -7.157400131 0.381900012 -0.015500000
O -7.879199982 0.041999999 1.123299956
C -5.675700188 0.310400009 -0.012300000
C -5.003099918 -0.105900005 1.146800041
C -3.608400106 -0.183100000 1.179299951
F -3.015100002 -0.615000010 2.321199894
C -2.844700098 0.156499997 0.043099999
C -3.521100044 0.575100005 -1.122599959
F -2.834800005 0.936900020 -2.236700058
C -4.918399811 0.651300013 -1.149700046
F -5.523799896 1.064599991 -2.292500019
O 7.763400078 -0.410100013 1.337700009
C 7.141399860 -0.392100006 0.242200002
O 7.864500046 -0.449800014 -0.943899989
C 5.664299965 -0.310900003 0.216600001
C 4.928299904 -0.252400011 1.412099957
C 3.532799721 -0.175699994 1.383999944
C 2.841300011 -0.155800000 0.159400001
C 3.580299854 -0.214500010 -1.035799980
C 4.975800037 -0.291200012 -1.006999969
C 1.375676155 -0.025040630 0.114252292
C -1.368307471 0.113601007 0.055456396
C 1.126365662 -2.528546810 0.026113756
C -0.640684903 1.295625567 -0.072187699
Cl 1.691147566 2.632057190 -0.283821613
C 0.547682703 -1.151534438 0.110854149
N -0.767214894 -1.073869109 0.117122971
C 0.733567655 1.211580992 -0.055781893
