26

Cl -4.476399899 0.415199995 1.479699969
C -3.135400057 0.599300027 0.360500008
N -2.839699984 1.841500044 -0.101200007
C -1.822399974 2.067500114 -0.971599936
Cl -1.534199953 3.710999966 -1.520200014
C -1.031900048 0.998000026 -1.418499947
Cl 0.240599990 1.266700029 -2.606800079
C -1.298599958 -0.296900034 -0.939700007
C -2.373600006 -0.502799988 -0.056100003
Cl -2.745699883 -2.120900154 0.538699985
Cl 4.464000225 1.783800006 0.891900003
C 3.036900043 0.772199988 1.051499963
N 2.400500059 0.731400013 2.251800060
C 1.292299986 -0.026899993 2.450999975
C 0.772499979 -0.791700006 1.408100009
C 1.391299963 -0.766100049 0.151500002
C 2.549200058 0.016799986 -0.029500000
Cl 3.363600016 0.082000017 -1.592399955
N 0.833456695 -1.510305285 -0.930590510
C -0.447490424 -1.442835689 -1.428643823
O -0.881212711 -2.200488567 -2.257185459
C 1.385268807 0.149678439 4.931385040
C 1.691874862 -2.516893864 -1.553875923
F -0.522463620 -0.579066873 3.731358290
C 0.844846964 -0.553002596 3.800271749
F 1.216188192 -1.852976203 3.830760956
