20

C 4.961900234 -0.188700005 -1.382099986
C 3.565999985 -0.225099996 -1.341699958
C 2.895900011 0.062399998 -0.139799997
C 3.658099890 0.380900025 0.997699916
C 5.052299976 0.404600024 0.912599981
N 5.669400215 0.122199997 -0.264499992
C -4.961900234 0.188700005 1.363100052
C -3.565999985 0.225199997 1.322600007
C -2.895900011 -0.062399998 0.120700009
C -3.658099890 -0.380899966 -1.016700029
C -5.052299976 -0.404599965 -0.931699991
N -5.669400215 -0.122199997 0.245499983
C 1.422187567 0.054945882 -0.105284162
Cl 0.801936746 0.330307841 -2.811591864
C -0.622914672 -0.835723937 0.849705696
C -1.413351893 -0.001896073 0.035572160
C -0.785119057 0.868532598 -0.807190180
C 0.751555026 -0.795910060 0.741101384
C 0.656606376 0.916906536 -1.051746368
C 1.200973511 2.349733591 -1.054897547
