28

O -7.898200035 -0.539699972 0.566900015
C -7.190599918 0.425700009 0.174999997
O -7.821000099 1.599400043 -0.222599998
C -5.711999893 0.319599986 0.135399997
C -4.947199821 1.414199948 -0.304300010
C -3.552999973 1.337399960 -0.350699991
C -2.890700102 0.162900001 0.038800005
C -3.649800062 -0.930599988 0.485199988
C -5.045800209 -0.858600020 0.532400012
F -5.736499786 -1.944100022 0.964800000
O 7.898200035 0.539699972 -0.617999971
C 7.190599918 -0.425700009 -0.225899994
O 7.821000099 -1.599400043 0.171700001
C 5.711999893 -0.319599986 -0.186399996
C 4.947199821 -1.414199948 0.253399998
C 3.552999973 -1.337399960 0.299699992
C 2.890700102 -0.162900001 -0.089800000
C 3.649800062 0.930499971 -0.536199987
C 5.045800209 0.858600020 -0.583400011
F 5.736499786 1.944000006 -1.015799999
C 1.372738123 -0.021959057 0.046653349
C -0.699241281 0.836610794 -0.938100278
C 1.112871408 0.716777623 1.380726695
C 0.556810975 -1.340231776 0.122612864
C -1.431282043 0.020642690 -0.130373359
S 1.379277468 1.117669702 -2.560522318
C 0.698719323 0.698034346 -1.122257948
N -0.813407004 -1.026165843 0.482343554
