29

O -6.635900021 1.324499965 -1.140799999
C -6.135300159 0.822799981 -0.099500000
O -6.989699841 0.439999998 0.927800059
C -4.664100170 0.643599987 0.026800007
C -3.794199944 1.047299981 -1.008999944
F -4.270800114 1.620499969 -2.143500090
C -2.412499905 0.873899996 -0.884999990
C -1.862699986 0.286799997 0.267899990
C -2.723999977 -0.098399997 1.304999948
C -4.106900215 0.070100002 1.189100027
F -4.891499996 -0.332300007 2.220599890
O 6.738399982 -1.639899969 -0.979499936
C 6.145699978 -0.824999988 -0.223199993
O 6.889100075 -0.103399999 0.703800082
C 4.681000233 -0.638100028 -0.318599999
C 4.026199818 0.275200009 0.523400068
C 2.642799854 0.454100013 0.437100023
C 1.882700086 -0.287900001 -0.484699994
C 2.540599823 -1.184100032 -1.344200015
F 1.840000033 -1.901499987 -2.259599924
C 3.924799919 -1.362800002 -1.255800009
Cl 0.331579745 1.749485850 -1.315578341
C 0.546341121 -2.394336224 3.044821739
S -0.917138338 -2.703346252 0.959695578
C -0.200852260 -3.332119465 2.405714512
C 0.417937994 0.010940293 -0.734881759
C -0.197384596 -1.131770611 1.252088189
C 0.545865297 -1.133592606 2.388557911
N -0.485020757 -0.049915250 0.403023630
