35

C -1.073899984 -3.906399727 -0.775200009
C -1.919600010 -2.652899981 -0.574199915
C -2.141999960 -2.368799925 0.915700078
C -2.965600014 -1.111600041 1.108500004
C -4.356299877 -1.239699960 1.251299977
C -5.178100109 -0.111400008 1.381800056
C -6.643700123 -0.259499997 1.532199979
O -7.174399853 -1.402099967 1.549600005
O -7.456500053 0.861500025 1.656999946
C -4.596000195 1.162600040 1.361500025
C -3.209500074 1.324499965 1.214400053
C -2.652400017 2.732100010 1.178599954
C -2.766799927 3.326100111 -0.230100006
C -2.159899950 4.724400043 -0.289899975
C -2.384399891 0.180999994 1.072700024
C 2.029799938 -2.803499937 -2.567500114
C 2.766700029 -2.032599926 -1.476400018
C 3.144500017 -0.623899937 -1.952199936
C 3.868099928 0.146100000 -0.864499927
C 5.267099857 0.273600012 -0.960299969
C 6.011600018 0.907600045 0.047899991
C 7.481400013 1.040699959 -0.067699999
O 8.088500023 0.593100011 -1.076900005
O 8.213600159 1.663100004 0.936900020
C 5.344900131 1.405900002 1.174399972
C 3.961600065 1.277400017 1.292500019
C 3.204999924 0.661700010 0.282599986
C 1.256565452 0.552078366 1.853354454
C 1.040757895 1.653144836 0.930571675
C -0.929146647 0.354433328 0.859422326
N -0.316246212 1.544289947 0.412097037
C -0.460550308 0.490104914 -0.527422905
C 0.085283414 -0.340205431 1.911200404
C 0.300808668 0.469462276 3.117556572
N 1.836809874 0.561253428 0.433454782
