25

F 5.485400200 2.726799965 -0.521099985
C 4.886099815 1.527999997 -0.320400000
C 3.492599964 1.439100027 -0.287299991
C 2.880399942 0.193399996 -0.074600004
C 3.692399979 -0.941700041 0.101999998
F 3.144900084 -2.170700073 0.283100009
C 5.083399773 -0.806200027 0.060199998
F 5.878099918 -1.892199874 0.222000003
N 5.644700050 0.413999975 -0.147599995
F -5.886300087 1.875800014 -0.153500006
C -5.091599941 0.789900005 0.008700000
N -5.652800083 -0.430200040 0.216800004
C -4.893799782 -1.543900013 0.390100002
C -3.500600100 -1.455000043 0.357100010
C -2.888299942 -0.209500000 0.143999994
C -3.700400352 0.925499976 -0.033000000
F -3.153100014 2.154599905 -0.214499995
C 0.677517295 0.637621164 -1.059206009
S 1.226787925 1.551717520 -2.315486431
C -0.754221320 0.485603631 -0.960594416
N 1.491011381 0.045288168 -0.135117948
C -0.710005403 -0.235226050 1.283974767
N -0.235511810 -0.209449634 2.351527214
O -1.466028452 0.956562757 -2.022373438
C -1.420933843 -0.038765207 0.126855537
