29

C 3.517499924 2.576699734 0.082400002
C 4.218100071 1.242900014 0.128199995
C 5.621399879 1.226799965 0.226699993
C 6.334499836 0.017100006 0.232400000
C 7.811600208 0.010399997 0.328700006
O 8.454000473 1.091199994 0.409999996
O 8.512000084 -1.190600038 0.331200004
C 5.627799988 -1.188899994 0.141000003
C 4.235400200 -1.189800024 0.059599999
C 3.508699894 0.013699993 0.068800002
C -4.808199883 -2.652699947 -1.562299967
C -4.198100090 -1.492300034 -0.815800011
C -2.799400091 -1.377400041 -0.786099970
C -2.170599937 -0.340799987 -0.081699997
C -2.963799953 0.602500021 0.586899996
C -4.365200043 0.533599973 0.546700001
C -5.157100201 1.601699948 1.259400010
C -4.998400211 -0.526400030 -0.151800007
C -6.479300022 -0.623600006 -0.184499994
O -7.080800056 -0.847299993 -1.268000007
O -7.220600128 -0.467999995 0.980499983
N 1.815301895 -1.654470563 1.866515756
Cl -0.780552328 0.157393515 -2.767278194
N -0.042837709 -0.704931498 0.915302575
C 2.047621965 -0.071754396 -0.029489573
C 1.359640598 0.388972580 -1.148142338
C 1.286331654 -0.778500676 0.927262068
C 0.005776465 0.143470407 -1.255561590
C -0.706628263 -0.250798225 -0.116207138
