24

F -5.666399956 -2.368400097 0.207699999
C -4.983500004 -1.202700019 0.102100000
C -3.586800098 -1.206900001 0.108499989
C -2.885999680 0.004999995 -0.009000000
C -3.617099762 1.202700019 -0.122000001
F -2.987999916 2.403500080 -0.193499997
C -5.014800072 1.159199953 -0.122599997
F -5.731100082 2.305299997 -0.225199997
N -5.661300182 -0.030900002 -0.012800001
F 3.021300316 2.388000011 -0.206000000
C 3.641799927 1.183099985 -0.133599997
C 5.038499832 1.132400036 -0.137600005
N 5.679999828 -0.060400009 -0.027100001
C 4.996099949 -1.228399992 0.091499999
C 3.599699974 -1.225499988 0.101499990
C 2.904500008 -0.010300010 -0.016500000
C -1.404470921 0.116886854 -0.067774877
N 0.737919092 0.097173393 1.069737911
C 1.439642310 0.070192754 -0.021518866
Cl -1.301715374 0.880541325 -2.659584284
C -0.644265354 0.391131580 -1.164464951
C -0.677038014 0.196508378 1.189202309
N 0.730831742 0.315632433 -1.152128935
O -1.177309752 0.351625681 2.284021139
