30

C -5.380400181 -2.040999889 1.951699972
C -4.755099773 -1.070299983 0.981400013
C -3.355299950 -1.010499954 0.905099988
C -2.720599890 -0.147400007 0.006399989
C -3.492000103 0.663500011 -0.831200004
C -4.893400192 0.650399983 -0.757099986
C -5.667900085 1.579900026 -1.657400012
C -5.541800022 -0.227300003 0.151700020
C -7.023700237 -0.265399992 0.228699982
O -7.605400085 -0.253800005 1.345499992
O -7.787799835 -0.314200014 -0.930899978
C 5.803100109 2.365799904 -0.778100014
C 5.113999844 1.025300026 -0.797800004
C 3.725500107 0.988100052 -0.591099977
C 3.028300047 -0.225600004 -0.561699986
C 3.728800058 -1.436800003 -0.731700003
C 3.016299963 -2.763900042 -0.696399987
C 5.110499859 -1.403599977 -0.969600022
C 5.818600178 -0.188899994 -1.015300035
C 7.279600143 -0.241899997 -1.290099978
O 7.896900177 0.756900012 -1.743899941
O 7.985599995 -1.421300054 -1.080399990
C 0.370087594 1.283616066 -0.903307319
C -0.746515572 0.278530836 -1.170464158
O -1.346306205 -0.086682543 -0.009307921
O -1.058485746 -0.088000134 -2.255852222
C 1.130073190 -0.648526311 1.045345902
C 1.020100117 0.701987326 0.390335381
N 1.675299287 -0.335161805 -0.237589717
O 1.224642038 1.365969419 -2.000090837
