35

O -5.193999767 3.493400097 -1.042999983
C -5.786200047 2.452300072 -0.652300000
O -7.175600052 2.447499990 -0.602800012
C -5.016099930 1.252300024 -0.252900004
C -5.680600166 0.096799999 0.182699993
C -4.968800068 -1.052299976 0.572300017
C -5.742300034 -2.231899977 1.038800001
O -5.219299793 -3.104099989 1.780500054
O -7.081200123 -2.369800091 0.689700007
C -3.552299976 -1.041599989 0.504100025
Cl -2.599200010 -2.488500118 0.867600024
C -2.882699966 0.122400001 0.070200004
C -3.615999937 1.256600022 -0.299800009
O 6.658500195 3.232000113 0.588199973
C 5.500999928 3.065099955 0.122299999
O 4.760399818 4.183800220 -0.242799997
C 4.907400131 1.708799958 0.004200000
C 3.510099888 1.599099994 0.007500000
C 2.882499933 0.354699999 -0.079499990
C 3.652499914 -0.817099988 -0.171000004
Cl 2.833899975 -2.386699915 -0.194499999
C 5.062399864 -0.733500004 -0.193599999
C 5.872900009 -1.968000174 -0.305500001
O 6.852900028 -2.158900023 0.462099999
O 5.559899807 -2.930399895 -1.257799983
C 5.691800117 0.534200013 -0.115099996
Cl 7.451399803 0.644400001 -0.291799992
C 1.400909066 0.300455362 -0.137195557
O 0.941655874 -1.859066606 0.850397468
O 1.111640573 2.308124065 -1.466995478
O -0.686212301 -0.422596395 0.878749967
C 0.628020287 1.218086362 -0.820783377
C 0.634880066 -0.701006353 0.572836936
C -0.771408439 1.099109888 -0.846975565
C -1.414456844 0.231209725 -0.003636617
