18

O -5.066100121 0.099600002 -0.508899987
C -4.261099815 0.083099999 -1.475499988
O -4.740600109 0.091799997 -2.778100014
C -2.847300053 0.055399999 -1.231600046
C -1.659399986 0.032099999 -1.026499987
O 4.691299915 -0.090700001 2.337300062
C 4.255700111 -0.082999997 1.157199979
O 5.142899990 -0.101400003 0.089800015
C 2.841700077 -0.055300001 0.914099991
C 1.653900027 -0.032000002 0.708999991
C -0.382349014 0.609047294 -0.545344889
C -0.317348927 1.333498597 0.765994608
C -2.208974123 -0.327747405 2.037196398
C -0.251025468 -1.366981983 0.723923922
O -3.396179199 0.103919558 1.839483738
C -1.599121928 -1.416474581 1.420556545
N 0.287738889 0.001837618 0.519747794
O -1.327233911 -0.041999463 2.755175114
