33

C -3.298106909 -3.896199942 0.699992836
C -2.455307007 -3.209899902 1.770992756
O -1.708307028 -2.119099855 1.271292806
C -3.028007030 3.848299980 -1.696807146
C -3.222306967 3.928800106 -0.186607152
O -3.973006964 2.842400074 0.326392829
O 0.716793060 1.740399957 -0.466007173
C 0.836893082 0.565999985 -0.166407153
N -0.171107054 -0.229099989 0.287392855
C 2.137193203 -0.113199979 -0.275407165
C 3.299492836 0.480100006 -0.689107180
C 4.398192883 -0.399099976 -0.696607172
C 4.064692974 -1.652799964 -0.290007174
S 2.402893066 -1.786599994 0.110892847
I 1.785920024 -4.231569290 2.017734051
Br 1.162165880 -3.652950287 2.617854118
I 0.356978327 -4.340201378 0.626100302
P 2.645659685 -6.816267490 3.760928631
I 1.014224768 -5.774775982 2.305931807
Br 1.196200609 -5.033929348 0.998526454
S 2.713024139 -7.016870975 1.853323460
I 1.576263547 -5.938103676 2.113832712
F 3.361386538 -6.844630241 -0.738494813
S 3.157668829 -6.597398281 4.409717560
Cl 3.210814714 -5.814622402 0.869703531
N 2.433159351 -5.106536865 1.940664530
N 2.250955343 -3.401298523 2.800164461
I 1.518939972 -4.556103706 1.142727971
C 0.731412292 -4.986575603 -0.859394789
Cl 3.732494593 -6.449601173 2.926276922
C 1.256505132 -5.299878120 2.211716175
F 1.808321834 -2.074588537 2.372329712
Br 3.947018385 -7.254272938 1.572918296
