33

C -3.298106909 -3.896199942 0.699992836
C -2.455307007 -3.209899902 1.770992756
O -1.708307028 -2.119099855 1.271292806
C -3.028007030 3.848299980 -1.696807146
C -3.222306967 3.928800106 -0.186607152
O -3.973006964 2.842400074 0.326392829
O 0.716793060 1.740399957 -0.466007173
C 0.836893082 0.565999985 -0.166407153
N -0.171107054 -0.229099989 0.287392855
C 2.137193203 -0.113199979 -0.275407165
C 3.299492836 0.480100006 -0.689107180
C 4.398192883 -0.399099976 -0.696607172
C 4.064692974 -1.652799964 -0.290007174
S 2.402893066 -1.786599994 0.110892847
I 1.528795004 -4.797524452 1.585618734
Br 1.001657128 -3.690781832 2.380497217
I 0.375517845 -4.372098446 0.439848989
P 2.620555401 -6.836962700 3.442529678
Cl 1.040457487 -6.196368694 2.000787735
Br 1.239295483 -5.774856567 1.060300350
I 2.780438662 -6.608078480 1.937401295
I 1.671734333 -6.182418346 2.490252972
F 3.432568073 -6.836256504 -1.237481117
S 3.070813894 -6.682142735 4.321274281
Cl 3.196906805 -5.959697723 1.114662528
N 2.544657946 -5.676048756 1.482628226
N 2.225635290 -3.256248713 2.490912676
I 1.391931295 -4.367122650 1.228811026
C 0.445880473 -5.477377892 -0.940587282
Cl 3.821007490 -6.423127651 2.920595169
C 1.446165204 -5.178096294 2.033789158
F 1.682577014 -1.934266329 2.498066902
Br 3.791512489 -7.544018269 1.586952329
