33

C -3.298106909 -3.896199942 0.699992836
C -2.455307007 -3.209899902 1.770992756
O -1.708307028 -2.119099855 1.271292806
C -3.028007030 3.848299980 -1.696807146
C -3.222306967 3.928800106 -0.186607152
O -3.973006964 2.842400074 0.326392829
O 0.716793060 1.740399957 -0.466007173
C 0.836893082 0.565999985 -0.166407153
N -0.171107054 -0.229099989 0.287392855
C 2.137193203 -0.113199979 -0.275407165
C 3.299492836 0.480100006 -0.689107180
C 4.398192883 -0.399099976 -0.696607172
C 4.064692974 -1.652799964 -0.290007174
S 2.402893066 -1.786599994 0.110892847
I 4.575793743 -9.941873550 3.365984440
Br 1.555451155 -6.785406113 3.978755474
N 0.959813833 -6.060798168 2.774084806
Cl 6.087502956 -12.680940628 6.161330700
I 2.848516703 -11.201766968 1.499849796
Cl 4.140573502 -9.493266106 0.318875283
P 4.612580776 -10.838190079 0.334630966
P 4.150706291 -11.628129005 4.114624023
S 5.549245834 -11.286005020 -0.849958360
F 4.925627232 -11.718692780 6.491124630
I 3.177888393 -9.625424385 1.650657296
Br 4.359816551 -11.176215172 5.162535191
Cl 1.351324081 -7.866716862 1.913798928
Cl 2.115722418 -9.550950050 2.722757816
F 2.349334240 -7.564395905 1.995566726
S 5.372474670 -10.771253586 5.907634735
F 4.338628292 -9.136956215 0.732770443
F 1.591390491 -5.298618793 2.070131063
S 3.573212624 -10.917131424 3.944439173
