33

C -3.298106909 -3.896199942 0.699992836
C -2.455307007 -3.209899902 1.770992756
O -1.708307028 -2.119099855 1.271292806
C -3.028007030 3.848299980 -1.696807146
C -3.222306967 3.928800106 -0.186607152
O -3.973006964 2.842400074 0.326392829
O 0.716793060 1.740399957 -0.466007173
C 0.836893082 0.565999985 -0.166407153
N -0.171107054 -0.229099989 0.287392855
C 2.137193203 -0.113199979 -0.275407165
C 3.299492836 0.480100006 -0.689107180
C 4.398192883 -0.399099976 -0.696607172
C 4.064692974 -1.652799964 -0.290007174
S 2.402893066 -1.786599994 0.110892847
I 4.237291813 -9.658462524 3.220178127
O 1.364995480 -6.774428844 3.800784111
N 0.433471471 -5.920640945 2.555625916
Cl 6.171886921 -12.211712837 6.115210533
I 2.963471651 -10.724335670 1.300133944
Cl 3.731706142 -9.248849869 0.324583292
P 4.127728462 -10.453915596 -0.086719893
P 3.952511311 -11.104710579 3.704963684
S 5.746395588 -10.993378639 -1.252249837
F 4.665270329 -11.651902199 6.724947453
I 2.844753504 -9.516155243 1.512865424
F 4.268921852 -10.458113670 4.961191654
N 1.538003564 -7.811624527 1.885918379
Cl 2.266883612 -9.534465790 2.450679302
S 2.127237082 -7.449018955 2.081641197
S 5.511384964 -10.292994499 5.578864098
C 3.688056946 -8.449589729 0.627094924
C 1.615800738 -5.196306705 2.128609180
S 3.404715061 -10.734530449 3.864166021
