33

C -3.298106909 -3.896199942 0.699992836
C -2.455307007 -3.209899902 1.770992756
O -1.708307028 -2.119099855 1.271292806
C -3.028007030 3.848299980 -1.696807146
C -3.222306967 3.928800106 -0.186607152
O -3.973006964 2.842400074 0.326392829
O 0.716793060 1.740399957 -0.466007173
C 0.836893082 0.565999985 -0.166407153
N -0.171107054 -0.229099989 0.287392855
C 2.137193203 -0.113199979 -0.275407165
C 3.299492836 0.480100006 -0.689107180
C 4.398192883 -0.399099976 -0.696607172
C 4.064692974 -1.652799964 -0.290007174
S 2.402893066 -1.786599994 0.110892847
N 4.995716572 -11.435476303 4.140774727
C 2.070030928 -7.263256550 3.537249327
C 0.686208248 -6.059010983 2.683325529
C 5.970437050 -13.538968086 5.571396351
C 3.727999210 -11.988664627 1.788496614
C 4.770713329 -10.824014664 0.633955479
C 4.629312992 -12.011096001 0.543686867
C 5.056694508 -12.742984772 4.947908401
O 5.419880390 -11.529403687 -0.253006190
C 5.941270828 -12.675159454 6.672123909
C 3.632411242 -10.530104637 1.265920281
C 4.433502197 -12.318642616 6.006939411
C 1.576724768 -8.088402748 1.897795439
C 2.640425444 -9.769731522 2.775944710
C 2.954758883 -7.649987221 2.149693489
C 5.354832649 -11.388486862 5.731412888
C 5.191150188 -9.542268753 1.008362889
C 1.888798714 -6.385138512 2.274100065
C 3.671387196 -11.421197891 3.750759125
