33

C -3.298106909 -3.896199942 0.699992836
C -2.455307007 -3.209899902 1.770992756
O -1.708307028 -2.119099855 1.271292806
C -3.028007030 3.848299980 -1.696807146
C -3.222306967 3.928800106 -0.186607152
O -3.973006964 2.842400074 0.326392829
O 0.716793060 1.740399957 -0.466007173
C 0.836893082 0.565999985 -0.166407153
N -0.171107054 -0.229099989 0.287392855
C 2.137193203 -0.113199979 -0.275407165
C 3.299492836 0.480100006 -0.689107180
C 4.398192883 -0.399099976 -0.696607172
C 4.064692974 -1.652799964 -0.290007174
S 2.402893066 -1.786599994 0.110892847
I 3.773348331 -6.851655483 2.466354847
Br 1.884606838 -3.924340963 2.869361877
I 0.678764403 -4.406554699 1.280271173
O 3.440151215 -9.241086960 4.294915676
I 2.290418148 -8.370707512 0.036745183
Cl 3.084758520 -7.637077332 -0.067078948
C 2.580130577 -7.259304047 1.056615472
I 2.329530001 -7.475150585 2.623970509
F 4.305636883 -8.246484756 -1.612377644
O 4.035906315 -8.029550552 5.380009651
I 3.292498827 -8.109136581 1.046812654
N 3.496684551 -7.430836678 3.138996124
Cl 2.502928495 -5.421614647 1.495317936
I 2.933103323 -7.019956589 1.945133686
C 1.864754915 -6.431651115 0.537582934
Cl 4.221187592 -8.036265373 3.765352249
C 1.931846261 -5.526906967 1.551335812
C 1.254425883 -2.907951832 1.491285205
S 2.562050104 -8.085309029 2.380339384
