33

C -3.298106909 -3.896199942 0.699992836
C -2.455307007 -3.209899902 1.770992756
O -1.708307028 -2.119099855 1.271292806
C -3.028007030 3.848299980 -1.696807146
C -3.222306967 3.928800106 -0.186607152
O -3.973006964 2.842400074 0.326392829
O 0.716793060 1.740399957 -0.466007173
C 0.836893082 0.565999985 -0.166407153
N -0.171107054 -0.229099989 0.287392855
C 2.137193203 -0.113199979 -0.275407165
C 3.299492836 0.480100006 -0.689107180
C 4.398192883 -0.399099976 -0.696607172
C 4.064692974 -1.652799964 -0.290007174
S 2.402893066 -1.786599994 0.110892847
I 3.742434502 -7.193976879 2.222171068
Br 2.041245937 -4.600146770 3.107635498
C 0.562908053 -4.273712158 2.133575678
S 4.509132862 -9.759327888 5.138499260
I 2.496306181 -8.359375954 0.265058875
S 3.984320164 -7.256992817 -0.690709352
P 2.738974810 -8.094359398 0.697091281
I 2.107463121 -8.254779816 2.432595730
F 4.883346081 -9.254161835 -0.967370689
F 4.420579910 -9.071543694 5.542241573
Br 3.668962002 -8.349399567 1.350993633
N 3.513786793 -7.917734623 3.744047880
Cl 1.719527006 -6.547638416 1.457335114
I 2.201720476 -7.329665661 2.344634056
O 1.654562235 -7.204626560 1.362337708
S 4.637711525 -7.836234093 4.009076118
Cl 2.699875355 -6.478004932 1.451834440
C 1.812910557 -3.614205837 1.302642822
S 2.844778538 -8.724237442 2.826742887
