33

C -3.298106909 -3.896199942 0.699992836
C -2.455307007 -3.209899902 1.770992756
O -1.708307028 -2.119099855 1.271292806
C -3.028007030 3.848299980 -1.696807146
C -3.222306967 3.928800106 -0.186607152
O -3.973006964 2.842400074 0.326392829
O 0.716793060 1.740399957 -0.466007173
C 0.836893082 0.565999985 -0.166407153
N -0.171107054 -0.229099989 0.287392855
C 2.137193203 -0.113199979 -0.275407165
C 3.299492836 0.480100006 -0.689107180
C 4.398192883 -0.399099976 -0.696607172
C 4.064692974 -1.652799964 -0.290007174
S 2.402893066 -1.786599994 0.110892847
I 2.146063328 -5.982447624 2.183339596
Br 1.858274102 -3.912793398 2.760477066
F 0.728889227 -4.277348518 0.951418996
O 2.620994329 -7.501351833 4.246501923
Cl 1.588967562 -6.364872932 1.252597928
Br 2.238361835 -6.810420990 1.376299143
F 2.342535496 -6.879234791 2.016088963
I 1.314178109 -6.449254036 2.378334999
F 3.892882824 -6.861898422 -1.133024693
S 3.128983974 -6.321969032 4.085413933
I 4.104871273 -6.325136662 0.989805520
N 2.778861046 -6.533189774 2.372424364
N 2.362519264 -3.826390266 2.118435383
I 1.479905486 -5.342750549 1.520337105
C 0.875265181 -5.634116173 -0.550863147
Cl 3.868265629 -6.348002434 2.987465620
S 1.833275557 -5.501086712 1.945963860
F 1.245432019 -2.147522449 2.212137699
Br 3.876527786 -7.271183968 1.507877707
