33

C -3.298106909 -3.896199942 0.699992836
C -2.455307007 -3.209899902 1.770992756
O -1.708307028 -2.119099855 1.271292806
C -3.028007030 3.848299980 -1.696807146
C -3.222306967 3.928800106 -0.186607152
O -3.973006964 2.842400074 0.326392829
O 0.716793060 1.740399957 -0.466007173
C 0.836893082 0.565999985 -0.166407153
N -0.171107054 -0.229099989 0.287392855
C 2.137193203 -0.113199979 -0.275407165
C 3.299492836 0.480100006 -0.689107180
C 4.398192883 -0.399099976 -0.696607172
C 4.064692974 -1.652799964 -0.290007174
S 2.402893066 -1.786599994 0.110892847
I 1.997503757 -3.848590374 1.426415205
Br 1.382934093 -2.845019341 3.064573050
F 0.194317102 -4.404107571 0.357531160
P 2.385091543 -6.634538651 3.010131121
Cl 1.039918303 -5.314074993 2.316038132
Br 0.550236881 -4.716980457 0.848420560
I 2.173175812 -7.031009197 1.614404559
I 1.476325274 -5.723577976 2.479188204
F 3.401688099 -6.127693176 -1.014464855
S 3.445292234 -6.054986954 4.544209480
Cl 3.117533445 -5.336907387 0.615869999
N 2.621194363 -5.629573345 1.331041098
N 2.513434649 -2.617146254 2.402311087
I 1.304818034 -4.580545425 1.073876023
C 0.329959244 -4.668888569 -0.492836028
Cl 4.062861443 -6.256195068 2.958722591
C 0.512615383 -5.267903805 1.945919871
F 0.895818591 -1.943037033 2.041874170
Br 3.800327301 -6.516663551 1.495952249
