33

C -3.298106909 -3.896199942 0.699992836
C -2.455307007 -3.209899902 1.770992756
O -1.708307028 -2.119099855 1.271292806
C -3.028007030 3.848299980 -1.696807146
C -3.222306967 3.928800106 -0.186607152
O -3.973006964 2.842400074 0.326392829
O 0.716793060 1.740399957 -0.466007173
C 0.836893082 0.565999985 -0.166407153
N -0.171107054 -0.229099989 0.287392855
C 2.137193203 -0.113199979 -0.275407165
C 3.299492836 0.480100006 -0.689107180
C 4.398192883 -0.399099976 -0.696607172
C 4.064692974 -1.652799964 -0.290007174
S 2.402893066 -1.786599994 0.110892847
I 3.490367889 -7.475337505 1.826161981
Br 1.815547705 -5.186078548 3.144666195
N 0.346303642 -4.770151138 1.916135788
S 4.334725380 -10.432595253 5.565434933
I 2.370754957 -8.409823418 0.623143196
Cl 3.907351017 -7.394319057 -0.524620950
P 3.300568819 -8.743240356 0.521745861
I 2.040686131 -8.737983704 2.534352779
S 5.069777489 -9.351111412 -1.083612323
F 4.602880001 -9.013031006 5.519855499
Br 3.581986666 -8.256211281 1.308312654
N 3.863458872 -8.059333801 3.936630964
Cl 1.945842862 -7.080159187 1.180347562
I 2.049439907 -7.553970337 2.546913862
O 2.122173786 -6.936919212 1.737189770
S 5.110539913 -7.947836876 4.541417599
Cl 2.654740334 -6.601879597 0.960669994
C 1.637648344 -4.389206886 1.761120081
S 3.068247318 -8.730168343 2.836524725
