33

C -3.298106909 -3.896199942 0.699992836
C -2.455307007 -3.209899902 1.770992756
O -1.708307028 -2.119099855 1.271292806
C -3.028007030 3.848299980 -1.696807146
C -3.222306967 3.928800106 -0.186607152
O -3.973006964 2.842400074 0.326392829
O 0.716793060 1.740399957 -0.466007173
C 0.836893082 0.565999985 -0.166407153
N -0.171107054 -0.229099989 0.287392855
C 2.137193203 -0.113199979 -0.275407165
C 3.299492836 0.480100006 -0.689107180
C 4.398192883 -0.399099976 -0.696607172
C 4.064692974 -1.652799964 -0.290007174
S 2.402893066 -1.786599994 0.110892847
N 4.987896919 -10.423598289 3.595968723
C 1.703476787 -6.952965736 3.702149391
N 0.465188026 -6.060418606 2.652995348
C 6.290494442 -12.930694580 6.142274380
I 3.007572651 -11.572141647 1.263828397
Cl 4.451015949 -9.952026367 0.590165496
P 4.781870842 -11.393374443 0.659879029
C 4.338448048 -11.782939911 4.475041866
F 5.705736160 -11.393896103 -0.655302584
F 5.436056614 -12.135385513 6.390203953
N 3.389986277 -9.832769394 1.544640660
N 4.605675220 -11.652581215 5.327135086
P 1.178369403 -7.733228207 1.816992283
Cl 2.436638117 -9.590903282 2.648094893
F 2.493237019 -7.191723824 2.033101082
S 5.382163525 -10.887558937 5.957623482
F 4.541131496 -9.506568909 0.542912722
C 1.802731633 -5.859817982 2.233560324
C 3.670166969 -10.787824631 3.955753088
