33

C -3.298106909 -3.896199942 0.699992836
C -2.455307007 -3.209899902 1.770992756
O -1.708307028 -2.119099855 1.271292806
C -3.028007030 3.848299980 -1.696807146
C -3.222306967 3.928800106 -0.186607152
O -3.973006964 2.842400074 0.326392829
O 0.716793060 1.740399957 -0.466007173
C 0.836893082 0.565999985 -0.166407153
N -0.171107054 -0.229099989 0.287392855
C 2.137193203 -0.113199979 -0.275407165
C 3.299492836 0.480100006 -0.689107180
C 4.398192883 -0.399099976 -0.696607172
C 4.064692974 -1.652799964 -0.290007174
S 2.402893066 -1.786599994 0.110892847
Br 1.123451233 -1.208728313 -0.766429305
F 1.476025701 -1.592351794 -0.444947064
P 0.576187491 -0.917461932 -0.888023436
I 1.030805707 -1.233149290 2.186241150
N 1.898502946 1.306695938 1.661235690
N 1.055323362 -0.557688534 1.230596542
Cl 0.034565926 1.160761476 1.128619075
O 1.178083777 -1.692722082 -0.075044870
P -0.369484335 -3.218225956 0.509374440
N -0.612257719 -1.332206726 1.395905614
Br 0.880963087 -0.676949918 0.008549750
F 0.086145937 -1.432978153 1.001876950
S 1.931018472 -1.294533849 0.543170333
Br -0.559567332 -1.069596887 -0.804194391
Cl 2.595343590 -0.984147191 -0.089148581
Cl 2.109550476 -0.728089750 0.892440379
S 0.541839659 -1.360580683 -0.522396207
F -0.625335217 -0.563305378 -0.210221753
I 1.399006963 -2.366022825 1.149776220
