33

C -3.298106909 -3.896199942 0.699992836
C -2.455307007 -3.209899902 1.770992756
O -1.708307028 -2.119099855 1.271292806
C -3.028007030 3.848299980 -1.696807146
C -3.222306967 3.928800106 -0.186607152
O -3.973006964 2.842400074 0.326392829
O 0.716793060 1.740399957 -0.466007173
C 0.836893082 0.565999985 -0.166407153
N -0.171107054 -0.229099989 0.287392855
C 2.137193203 -0.113199979 -0.275407165
C 3.299492836 0.480100006 -0.689107180
C 4.398192883 -0.399099976 -0.696607172
C 4.064692974 -1.652799964 -0.290007174
S 2.402893066 -1.786599994 0.110892847
Cl 4.246566296 -9.543494225 2.925030947
O 1.673029065 -6.769416809 3.834568501
N 0.193044901 -5.818036079 2.432513952
Cl 6.093172073 -11.872604370 6.322114468
I 2.949238539 -10.446649551 1.573659897
Cl 3.478865623 -8.972965240 0.547442496
P 3.473034143 -10.488967896 0.057639141
P 3.928400993 -10.599447250 3.778528690
P 5.988835812 -10.941472054 -1.005512118
F 4.852515697 -11.197916031 6.459133625
Br 3.101621151 -9.481644630 1.567799091
F 4.345031738 -10.202204704 4.710007191
N 1.831550479 -7.560709953 1.669715643
S 2.112555504 -9.208647728 2.674284220
I 2.030262470 -7.494544506 2.069212198
O 5.650147915 -10.001820564 5.388404846
Br 3.559226751 -8.170351028 0.841960847
C 1.569176197 -5.099676132 2.293915510
S 3.494750738 -10.573584557 3.724470854
