33

C -3.298106909 -3.896199942 0.699992836
C -2.455307007 -3.209899902 1.770992756
O -1.708307028 -2.119099855 1.271292806
C -3.028007030 3.848299980 -1.696807146
C -3.222306967 3.928800106 -0.186607152
O -3.973006964 2.842400074 0.326392829
O 0.716793060 1.740399957 -0.466007173
C 0.836893082 0.565999985 -0.166407153
N -0.171107054 -0.229099989 0.287392855
C 2.137193203 -0.113199979 -0.275407165
C 3.299492836 0.480100006 -0.689107180
C 4.398192883 -0.399099976 -0.696607172
C 4.064692974 -1.652799964 -0.290007174
S 2.402893066 -1.786599994 0.110892847
F 5.157124519 -10.554060936 3.617197275
C 1.580887914 -7.025404453 3.733432770
F 0.525502920 -6.138362885 2.721709728
C 6.267082691 -12.885009766 6.173296452
O 3.138091803 -11.751970291 1.420006990
Cl 4.491946220 -9.952919960 0.622721434
P 4.710435390 -11.368725777 0.747827768
C 4.433230400 -11.936539650 4.535439491
F 5.663964748 -11.314409256 -0.686606407
C 5.527833462 -12.105852127 6.432172775
N 3.207324028 -9.897256851 1.418884873
F 4.736389637 -11.740859032 5.314179897
Br 1.161613822 -7.804829121 1.669900179
Cl 2.555896282 -9.595054626 2.778785944
F 2.480141878 -7.394207478 2.092096806
S 5.371006489 -10.933117867 6.050230503
F 4.660536766 -9.647156715 0.754966378
C 1.858409166 -5.861113548 2.015959978
C 3.598952532 -10.808061600 4.010173798
