33

C -3.298106909 -3.896199942 0.699992836
C -2.455307007 -3.209899902 1.770992756
O -1.708307028 -2.119099855 1.271292806
C -3.028007030 3.848299980 -1.696807146
C -3.222306967 3.928800106 -0.186607152
O -3.973006964 2.842400074 0.326392829
O 0.716793060 1.740399957 -0.466007173
C 0.836893082 0.565999985 -0.166407153
N -0.171107054 -0.229099989 0.287392855
C 2.137193203 -0.113199979 -0.275407165
C 3.299492836 0.480100006 -0.689107180
C 4.398192883 -0.399099976 -0.696607172
C 4.064692974 -1.652799964 -0.290007174
S 2.402893066 -1.786599994 0.110892847
I 2.980334282 -6.105271339 1.494849443
Br 2.502346992 -3.953320980 2.940536976
I 0.721569180 -4.111351490 1.352651834
O 3.162415504 -8.808403015 4.784988403
I 1.891071081 -7.895263672 0.777453959
Br 2.627626896 -7.619693756 0.346081525
C 3.036881685 -7.195654392 1.247365475
I 2.022550583 -6.970422268 2.472366571
F 3.375138998 -7.652277470 -0.821070552
O 3.819828987 -7.471463680 5.288388252
I 3.905586243 -7.702297688 0.673947275
C 3.571067095 -7.172194004 2.861173868
Cl 2.171377897 -4.776555538 2.057008028
P 1.928210139 -5.853497028 1.713991284
S 0.925408006 -6.022144318 -0.342576087
F 4.817987442 -7.225095749 3.363420248
C 2.055263042 -5.450879097 1.947519302
I 1.755026221 -2.777216911 1.533856034
S 3.943293571 -7.754111767 2.003149986
