33

C -3.298106909 -3.896199942 0.699992836
C -2.455307007 -3.209899902 1.770992756
O -1.708307028 -2.119099855 1.271292806
C -3.028007030 3.848299980 -1.696807146
C -3.222306967 3.928800106 -0.186607152
O -3.973006964 2.842400074 0.326392829
O 0.716793060 1.740399957 -0.466007173
C 0.836893082 0.565999985 -0.166407153
N -0.171107054 -0.229099989 0.287392855
C 2.137193203 -0.113199979 -0.275407165
C 3.299492836 0.480100006 -0.689107180
C 4.398192883 -0.399099976 -0.696607172
C 4.064692974 -1.652799964 -0.290007174
S 2.402893066 -1.786599994 0.110892847
P 0.937749863 -2.643445015 1.937192917
O 2.513536930 -2.801549911 0.940194964
I 0.519649327 -3.116635561 -0.281626642
I 0.644376516 -3.906933546 1.478956699
Br 1.802383900 -1.048313856 0.957734048
N 0.773695588 -1.358738184 -0.684528768
I 1.552163601 -1.614392877 0.869497120
Br 1.633474588 -4.099474430 1.354360223
Cl -0.108308360 -2.434889078 0.765076160
N 1.780973554 -2.263984442 2.801692486
O 1.584420085 -1.058716655 1.090708375
O 0.827683210 -1.013825059 -0.378870398
P 1.668055654 -0.754691601 1.441540480
N 1.259304643 -0.517257929 1.635459900
C -0.746858716 -1.778179765 0.332413137
F 1.977638245 -3.969588280 1.611873388
S 3.303583622 -3.740765572 -2.080059767
N 0.385887086 -1.238342285 0.125522375
C 3.837720394 -4.210347652 0.759093404
