33

C -3.298106909 -3.896199942 0.699992836
C -2.455307007 -3.209899902 1.770992756
O -1.708307028 -2.119099855 1.271292806
C -3.028007030 3.848299980 -1.696807146
C -3.222306967 3.928800106 -0.186607152
O -3.973006964 2.842400074 0.326392829
O 0.716793060 1.740399957 -0.466007173
C 0.836893082 0.565999985 -0.166407153
N -0.171107054 -0.229099989 0.287392855
C 2.137193203 -0.113199979 -0.275407165
C 3.299492836 0.480100006 -0.689107180
C 4.398192883 -0.399099976 -0.696607172
C 4.064692974 -1.652799964 -0.290007174
S 2.402893066 -1.786599994 0.110892847
I 3.042425871 -6.321833134 1.936764240
Br 2.236554861 -3.372909069 2.652287006
I 0.740658760 -4.315450191 1.229926348
O 3.429097414 -8.744769096 4.698615074
I 1.961870670 -8.361973763 0.258188784
Cl 2.751341105 -7.869155407 0.482634574
C 3.025101185 -7.141757965 0.879218221
I 2.049391031 -7.326938629 2.411558867
F 3.968506336 -8.106884003 -1.336000204
F 4.222176075 -8.010437965 5.429796696
I 3.651125193 -7.711018562 0.796359897
N 3.257374048 -7.053657532 2.895325422
Cl 2.225607395 -5.346439838 1.743120074
P 2.195289850 -6.420483589 1.886862636
S 1.544056177 -6.335606575 0.460405529
Cl 4.333445072 -7.399429798 3.929324627
C 1.923954248 -5.656291485 1.705566645
I 1.624605060 -2.649810791 1.390498161
S 3.239352703 -8.322957993 2.108806610
