33

C -3.298106909 -3.896199942 0.699992836
C -2.455307007 -3.209899902 1.770992756
O -1.708307028 -2.119099855 1.271292806
C -3.028007030 3.848299980 -1.696807146
C -3.222306967 3.928800106 -0.186607152
O -3.973006964 2.842400074 0.326392829
O 0.716793060 1.740399957 -0.466007173
C 0.836893082 0.565999985 -0.166407153
N -0.171107054 -0.229099989 0.287392855
C 2.137193203 -0.113199979 -0.275407165
C 3.299492836 0.480100006 -0.689107180
C 4.398192883 -0.399099976 -0.696607172
C 4.064692974 -1.652799964 -0.290007174
S 2.402893066 -1.786599994 0.110892847
N 5.045069218 -11.453171730 4.072710991
C 2.014327765 -7.282263279 3.560978413
O 0.772751987 -6.018568516 2.704643965
C 6.017164230 -13.570890427 5.518709183
C 3.730771780 -11.934289932 1.820372820
C 4.711317539 -10.830325127 0.639869928
C 4.669191360 -11.960769653 0.622243822
C 5.031082153 -12.645131111 4.947473526
O 5.375929356 -11.466187477 -0.326298624
C 5.861287594 -12.594729424 6.665685177
C 3.722135544 -10.418283463 1.194809437
C 4.423470020 -12.283017159 5.968296528
C 1.582309365 -8.129134178 1.924151897
C 2.595662594 -9.714577675 2.758652925
C 2.962221622 -7.644198895 2.149446964
C 5.370424747 -11.373251915 5.802940845
C 5.242638111 -9.553023338 0.953621089
C 1.888165116 -6.383950233 2.394913912
C 3.607488871 -11.418513298 3.756296873
