33

C -3.298106909 -3.896199942 0.699992836
C -2.455307007 -3.209899902 1.770992756
O -1.708307028 -2.119099855 1.271292806
C -3.028007030 3.848299980 -1.696807146
C -3.222306967 3.928800106 -0.186607152
O -3.973006964 2.842400074 0.326392829
O 0.716793060 1.740399957 -0.466007173
C 0.836893082 0.565999985 -0.166407153
N -0.171107054 -0.229099989 0.287392855
C 2.137193203 -0.113199979 -0.275407165
C 3.299492836 0.480100006 -0.689107180
C 4.398192883 -0.399099976 -0.696607172
C 4.064692974 -1.652799964 -0.290007174
S 2.402893066 -1.786599994 0.110892847
N 5.004530430 -11.417271614 4.119069576
C 2.028326035 -7.313173771 3.532283783
O 0.716602385 -6.040877342 2.704769850
C 5.987303257 -13.554261208 5.538478851
C 3.735074282 -11.948904037 1.792088747
C 4.734871864 -10.821723938 0.672322094
C 4.688954353 -11.968050003 0.612842441
C 5.031283379 -12.694499969 4.937938213
O 5.344092846 -11.499868393 -0.295984477
C 5.961288452 -12.617459297 6.678028584
C 3.661516666 -10.503422737 1.203153372
C 4.463121414 -12.305912018 5.972014904
C 1.618637085 -8.107422829 1.884382129
C 2.598455667 -9.710296631 2.813558578
C 2.947496891 -7.644258499 2.166140079
C 5.333303452 -11.371961594 5.740276337
C 5.218332291 -9.497542381 0.983167410
C 1.849226236 -6.390584469 2.313513279
C 3.619195461 -11.383478165 3.763280630
