33

C -3.298106909 -3.896199942 0.699992836
C -2.455307007 -3.209899902 1.770992756
O -1.708307028 -2.119099855 1.271292806
C -3.028007030 3.848299980 -1.696807146
C -3.222306967 3.928800106 -0.186607152
O -3.973006964 2.842400074 0.326392829
O 0.716793060 1.740399957 -0.466007173
C 0.836893082 0.565999985 -0.166407153
N -0.171107054 -0.229099989 0.287392855
C 2.137193203 -0.113199979 -0.275407165
C 3.299492836 0.480100006 -0.689107180
C 4.398192883 -0.399099976 -0.696607172
C 4.064692974 -1.652799964 -0.290007174
S 2.402893066 -1.786599994 0.110892847
S 1.535747290 -2.440934181 0.970699430
Cl 1.474659920 -3.227236986 1.681437850
Br 0.833993196 -3.433651686 -0.295206904
P 1.443963528 -5.311967373 1.967395425
C 1.186741590 -2.682173967 2.604201317
N -0.087835461 -3.419007778 0.609122992
N 0.750917733 -3.877059221 1.118161917
I 1.356322289 -5.577979565 1.754573703
F 2.731409788 -4.377160549 0.404930770
P 2.014512777 -4.819324493 4.471377850
Cl 2.262885332 -2.885308981 0.814343154
O 2.051421642 -4.186686039 0.392492920
O 1.733882785 -1.904616117 0.893406034
P 1.572392702 -3.339009762 0.687603354
C 0.240477145 -3.447875977 -0.612965047
S 3.297681808 -6.779889107 1.668067217
C 1.621580243 -4.020854950 0.354885995
C -1.435043335 -1.505067945 1.041060567
Br 1.976008892 -5.267251492 1.007376313
