33

C -3.298106909 -3.896199942 0.699992836
C -2.455307007 -3.209899902 1.770992756
O -1.708307028 -2.119099855 1.271292806
C -3.028007030 3.848299980 -1.696807146
C -3.222306967 3.928800106 -0.186607152
O -3.973006964 2.842400074 0.326392829
O 0.716793060 1.740399957 -0.466007173
C 0.836893082 0.565999985 -0.166407153
N -0.171107054 -0.229099989 0.287392855
C 2.137193203 -0.113199979 -0.275407165
C 3.299492836 0.480100006 -0.689107180
C 4.398192883 -0.399099976 -0.696607172
C 4.064692974 -1.652799964 -0.290007174
S 2.402893066 -1.786599994 0.110892847
I 2.172992229 -5.706891537 2.228365898
Br 2.212104082 -4.239422798 2.459758520
F 0.647417724 -4.026600361 1.608558774
O 2.305396318 -8.098435402 4.516032219
I 1.976766348 -7.107618809 1.171905875
Br 2.360875607 -6.776584625 0.988095224
F 2.555864811 -6.924835682 1.778728962
I 1.502575159 -6.613690853 2.749774218
F 3.590467691 -6.571173668 -0.870791137
S 3.979576349 -7.384566784 4.490973949
I 4.620766163 -7.035698891 0.943675518
N 2.915315628 -6.866325378 2.635835171
Cl 2.442703009 -3.973876476 2.287627697
P 1.807850122 -5.758922100 1.367437482
C 1.110940337 -6.064378738 -0.210704446
Cl 4.263543606 -7.205579758 3.097377062
C 2.183618546 -5.198737621 1.837622643
F 1.418783665 -2.611978292 1.969319940
Br 3.922455788 -7.695266724 1.520862341
