33

C -3.298106909 -3.896199942 0.699992836
C -2.455307007 -3.209899902 1.770992756
O -1.708307028 -2.119099855 1.271292806
C -3.028007030 3.848299980 -1.696807146
C -3.222306967 3.928800106 -0.186607152
O -3.973006964 2.842400074 0.326392829
O 0.716793060 1.740399957 -0.466007173
C 0.836893082 0.565999985 -0.166407153
N -0.171107054 -0.229099989 0.287392855
C 2.137193203 -0.113199979 -0.275407165
C 3.299492836 0.480100006 -0.689107180
C 4.398192883 -0.399099976 -0.696607172
C 4.064692974 -1.652799964 -0.290007174
S 2.402893066 -1.786599994 0.110892847
N 4.315935135 -9.658625603 3.213956356
O 1.403062820 -6.467494011 4.036070347
N 0.519958973 -5.935494900 2.783726931
Cl 6.187931061 -12.347222328 5.983391285
I 2.921909094 -10.694067001 1.380381465
Br 3.766544819 -9.388927460 0.292504132
P 4.535768509 -10.649281502 0.194924325
P 4.220536709 -11.532441139 3.764901161
S 5.814901352 -11.219997406 -1.154105186
F 4.891993999 -11.668789864 6.657153130
I 3.059411764 -9.602473259 1.684971213
F 4.382847786 -10.887336731 5.007894516
N 1.303735256 -7.636787891 2.093932390
Cl 2.161771297 -9.633686066 2.509624481
F 2.135094166 -7.449979305 1.952088594
I 5.471074104 -10.590947151 5.841927528
C 3.899768591 -8.972614288 0.498572826
C 1.588912964 -5.157333374 2.121226549
S 3.487223864 -10.812647820 3.773317337
