33

C -3.298106909 -3.896199942 0.699992836
C -2.455307007 -3.209899902 1.770992756
O -1.708307028 -2.119099855 1.271292806
C -3.028007030 3.848299980 -1.696807146
C -3.222306967 3.928800106 -0.186607152
O -3.973006964 2.842400074 0.326392829
O 0.716793060 1.740399957 -0.466007173
C 0.836893082 0.565999985 -0.166407153
N -0.171107054 -0.229099989 0.287392855
C 2.137193203 -0.113199979 -0.275407165
C 3.299492836 0.480100006 -0.689107180
C 4.398192883 -0.399099976 -0.696607172
C 4.064692974 -1.652799964 -0.290007174
S 2.402893066 -1.786599994 0.110892847
I 2.706656456 -5.888102055 1.721652389
Br 2.532406807 -4.333035469 2.919337034
I 0.492389053 -3.903565168 1.702304602
O 2.646551847 -8.647912025 4.724059105
Cl 1.828363657 -7.586015224 0.918742776
Br 2.587602139 -7.277851582 0.187304333
F 3.050865650 -6.745589256 1.475893140
I 1.899200082 -7.161762238 2.714624882
S 3.473499298 -7.237698555 -0.941433847
F 4.047725677 -7.594597340 5.147596836
I 4.100646496 -7.282557487 1.003633857
F 3.587298870 -6.926354885 2.731245041
Cl 2.298946619 -4.401190281 2.125096798
I 1.744633317 -5.727927685 1.391556621
O 0.778911710 -6.296909809 -0.520021915
Cl 4.793181896 -7.230959415 3.173278332
C 1.930804968 -5.118640900 2.187852859
I 1.758787990 -2.841377974 1.564269543
Br 4.121919155 -7.530410767 1.889603138
