33

C -3.298106909 -3.896199942 0.699992836
C -2.455307007 -3.209899902 1.770992756
O -1.708307028 -2.119099855 1.271292806
C -3.028007030 3.848299980 -1.696807146
C -3.222306967 3.928800106 -0.186607152
O -3.973006964 2.842400074 0.326392829
O 0.716793060 1.740399957 -0.466007173
C 0.836893082 0.565999985 -0.166407153
N -0.171107054 -0.229099989 0.287392855
C 2.137193203 -0.113199979 -0.275407165
C 3.299492836 0.480100006 -0.689107180
C 4.398192883 -0.399099976 -0.696607172
C 4.064692974 -1.652799964 -0.290007174
S 2.402893066 -1.786599994 0.110892847
S 1.015262961 -2.840427399 2.393540621
N 2.651513815 -3.049267054 1.514693022
I 1.188328624 -3.375442266 -0.506504178
N 1.374436855 -4.530995846 1.429189682
Cl 1.884363532 -2.598393679 0.986213386
N 0.141579643 -2.460793495 0.058187936
N 0.595903218 -1.325992823 1.452697158
Br 0.596886694 -4.212560177 1.714591503
F 1.351111770 -2.693913937 0.375108957
C 2.055170298 -3.792225599 3.844879389
Br 2.737387419 -2.426003933 1.414671540
O 1.124887109 -1.977247715 0.093667924
N 1.521198511 -1.624404907 1.582110167
Br 1.538097382 -1.495674610 1.093294859
C -0.515484810 -2.155614853 -0.174130812
F 1.321683645 -5.309365749 2.333513260
S 2.417385340 -3.453788042 -0.896847308
F -0.947215080 -0.405906796 1.136297107
Br 1.677095413 -4.352009296 1.169721842
