33

C -3.298106909 -3.896199942 0.699992836
C -2.455307007 -3.209899902 1.770992756
O -1.708307028 -2.119099855 1.271292806
C -3.028007030 3.848299980 -1.696807146
C -3.222306967 3.928800106 -0.186607152
O -3.973006964 2.842400074 0.326392829
O 0.716793060 1.740399957 -0.466007173
C 0.836893082 0.565999985 -0.166407153
N -0.171107054 -0.229099989 0.287392855
C 2.137193203 -0.113199979 -0.275407165
C 3.299492836 0.480100006 -0.689107180
C 4.398192883 -0.399099976 -0.696607172
C 4.064692974 -1.652799964 -0.290007174
S 2.402893066 -1.786599994 0.110892847
S 1.294800639 -3.580918789 1.123333454
Cl 1.834769487 -2.983420849 2.347737789
Br -0.181212142 -4.619627953 -0.191866130
P 1.912150264 -6.118735790 2.765444279
Cl 1.031501412 -4.650870323 2.400819540
Br 0.303215355 -3.838193655 0.771939039
I 1.320541143 -5.883529186 1.754328012
I 1.662580609 -5.811689377 2.743753433
F 3.030478477 -5.899779797 -0.256457388
S 3.003237247 -5.715812683 4.877037525
Cl 2.585880756 -3.906474352 0.929994106
S 1.884080648 -4.165415764 0.895089328
Cl 1.693224192 -3.003700256 2.369009018
I 1.247265220 -3.954196692 0.927076757
C 0.208066136 -4.240448475 -0.590814829
Cl 3.951042891 -6.242130280 2.418449879
C 1.316133380 -4.067653656 0.886106431
F 0.388967544 -2.522051573 1.668499947
Br 3.715035915 -6.426163197 1.455699801
