33

C -3.298106909 -3.896199942 0.699992836
C -2.455307007 -3.209899902 1.770992756
O -1.708307028 -2.119099855 1.271292806
C -3.028007030 3.848299980 -1.696807146
C -3.222306967 3.928800106 -0.186607152
O -3.973006964 2.842400074 0.326392829
O 0.716793060 1.740399957 -0.466007173
C 0.836893082 0.565999985 -0.166407153
N -0.171107054 -0.229099989 0.287392855
C 2.137193203 -0.113199979 -0.275407165
C 3.299492836 0.480100006 -0.689107180
C 4.398192883 -0.399099976 -0.696607172
C 4.064692974 -1.652799964 -0.290007174
S 2.402893066 -1.786599994 0.110892847
N 5.090920448 -11.220238686 3.906694651
C 1.944702506 -7.176015854 3.621112347
C 0.794134259 -6.112179756 2.547971010
C 6.120871544 -13.491204262 5.737377644
C 3.550456047 -11.923585892 1.605911255
P 4.769625187 -10.471979141 0.623604953
C 4.703912735 -11.613715172 0.551680148
C 4.747983932 -12.500121117 5.064595699
O 5.415767670 -11.478009224 -0.478565365
C 5.700987339 -12.486951828 6.482035637
N 3.652795076 -10.288455009 1.280640960
Cl 4.421159744 -12.137344360 5.913538456
O 1.637762547 -7.776847839 1.648714662
S 2.495270252 -9.709584236 2.746785402
C 2.650103331 -7.317588329 2.247613668
Br 5.297264099 -11.192438126 5.967424393
P 5.203622818 -9.587615967 1.106562257
S 1.808454752 -6.122581482 2.362669706
P 3.423213005 -11.276519775 3.898236036
