33

C -3.298106909 -3.896199942 0.699992836
C -2.455307007 -3.209899902 1.770992756
O -1.708307028 -2.119099855 1.271292806
C -3.028007030 3.848299980 -1.696807146
C -3.222306967 3.928800106 -0.186607152
O -3.973006964 2.842400074 0.326392829
O 0.716793060 1.740399957 -0.466007173
C 0.836893082 0.565999985 -0.166407153
N -0.171107054 -0.229099989 0.287392855
C 2.137193203 -0.113199979 -0.275407165
C 3.299492836 0.480100006 -0.689107180
C 4.398192883 -0.399099976 -0.696607172
C 4.064692974 -1.652799964 -0.290007174
S 2.402893066 -1.786599994 0.110892847
N 5.040903568 -11.138763428 3.781211138
C 1.916860938 -7.111222267 3.682881355
F 0.774554431 -6.036581039 2.558611870
N 6.147767544 -13.405077934 5.627418518
C 3.610270023 -11.981035233 1.694154382
P 4.681262970 -10.437323570 0.603138387
C 4.815022469 -11.605273247 0.510867536
C 4.726740837 -12.452132225 5.011152267
O 5.389947891 -11.545986176 -0.467114866
C 5.576639652 -12.355533600 6.441188335
N 3.696617126 -10.291729927 1.221332192
Cl 4.496114254 -12.124309540 5.900466919
Br 1.591646552 -7.802753925 1.719296813
N 2.473934889 -9.555865288 2.809077024
C 2.642496109 -7.234653473 2.207712173
Br 5.279137135 -11.211122513 5.934486866
P 5.069179058 -9.587826729 0.953346372
S 1.864766121 -6.154758453 2.423858166
P 3.382035971 -11.268753052 3.933170557
