33

C -3.298106909 -3.896199942 0.699992836
C -2.455307007 -3.209899902 1.770992756
O -1.708307028 -2.119099855 1.271292806
C -3.028007030 3.848299980 -1.696807146
C -3.222306967 3.928800106 -0.186607152
O -3.973006964 2.842400074 0.326392829
O 0.716793060 1.740399957 -0.466007173
C 0.836893082 0.565999985 -0.166407153
N -0.171107054 -0.229099989 0.287392855
C 2.137193203 -0.113199979 -0.275407165
C 3.299492836 0.480100006 -0.689107180
C 4.398192883 -0.399099976 -0.696607172
C 4.064692974 -1.652799964 -0.290007174
S 2.402893066 -1.786599994 0.110892847
I 3.799940348 -8.435871124 2.786313295
C 1.764611006 -6.611071587 3.677142859
N 0.656862020 -5.186624527 2.109797955
Cl 5.306858063 -11.520444870 6.299487591
O 2.705458164 -9.810057640 1.386246800
Cl 3.677597046 -8.639249802 0.134298548
P 3.456666470 -10.079032898 -0.442724168
I 3.632347822 -9.919160843 3.518204689
S 5.387803078 -10.427783012 -1.162703633
F 4.651327610 -9.973161697 6.086349964
Br 3.210553646 -8.881086349 1.191530943
F 4.933326721 -10.026068687 4.359936237
S 2.249624014 -7.599895000 1.851165175
S 1.901592493 -9.155486107 2.837844849
C 1.489431858 -6.922435760 1.977742553
S 5.386403084 -8.852314949 4.815980911
P 3.376616955 -7.559360504 1.063889623
N 1.486936569 -4.944125652 1.966984749
S 3.776992083 -9.798260689 3.538016081
