33

C -3.298106909 -3.896199942 0.699992836
C -2.455307007 -3.209899902 1.770992756
O -1.708307028 -2.119099855 1.271292806
C -3.028007030 3.848299980 -1.696807146
C -3.222306967 3.928800106 -0.186607152
O -3.973006964 2.842400074 0.326392829
O 0.716793060 1.740399957 -0.466007173
C 0.836893082 0.565999985 -0.166407153
N -0.171107054 -0.229099989 0.287392855
C 2.137193203 -0.113199979 -0.275407165
C 3.299492836 0.480100006 -0.689107180
C 4.398192883 -0.399099976 -0.696607172
C 4.064692974 -1.652799964 -0.290007174
S 2.402893066 -1.786599994 0.110892847
I 2.436851978 -5.724710464 2.140750885
Br 2.527729273 -4.186797619 2.852027893
F 0.437796444 -4.147320271 1.555668592
O 2.491102695 -8.663119316 4.401655674
I 1.999352217 -7.285328388 0.825411379
Br 2.565792084 -6.888033867 0.720690966
F 2.736666203 -6.787515163 1.547303438
I 1.590926290 -6.861583710 2.514759302
F 3.720047712 -6.974849224 -0.958398104
F 4.159213543 -7.262856007 4.910867691
I 4.554290771 -6.669480324 0.988785088
F 3.097936630 -7.021441460 2.648363352
Cl 2.524188519 -3.987884521 2.157038212
I 1.891850352 -5.724537849 1.401137114
O 0.963846207 -6.218176842 -0.495830268
Cl 4.484486103 -7.153496742 3.283812523
C 2.159039974 -5.126052380 1.927463770
I 1.403832197 -2.614206553 1.886107445
Br 4.044882774 -7.773809433 1.501300812
