33

C -3.298106909 -3.896199942 0.699992836
C -2.455307007 -3.209899902 1.770992756
O -1.708307028 -2.119099855 1.271292806
C -3.028007030 3.848299980 -1.696807146
C -3.222306967 3.928800106 -0.186607152
O -3.973006964 2.842400074 0.326392829
O 0.716793060 1.740399957 -0.466007173
C 0.836893082 0.565999985 -0.166407153
N -0.171107054 -0.229099989 0.287392855
C 2.137193203 -0.113199979 -0.275407165
C 3.299492836 0.480100006 -0.689107180
C 4.398192883 -0.399099976 -0.696607172
C 4.064692974 -1.652799964 -0.290007174
S 2.402893066 -1.786599994 0.110892847
S 1.096472263 -2.750403643 1.533959508
Cl 1.632083893 -3.104773521 1.618753195
Br 0.771364987 -4.015315056 -0.312345535
P 1.086300611 -5.510160923 2.629370213
F 1.087650418 -3.706053495 2.399455547
Br -0.505409122 -3.632486343 0.920407534
S 0.976909399 -4.038264275 1.588950276
I 1.192098737 -5.785982132 1.594774961
F 2.726881504 -4.388955593 0.553013802
P 2.170669794 -4.520575523 4.911970615
Cl 2.452386856 -2.749490499 1.021512508
O 2.049737215 -4.184855461 0.199577734
O 1.818983793 -2.524274111 0.969287872
P 1.388134599 -3.721335649 1.271921635
C 0.551473856 -3.561995029 -0.213202357
S 3.027191162 -6.291330814 1.523787022
C 1.908303618 -4.189321995 0.659573078
C -0.861682057 -1.489421844 0.934138477
Br 2.256447315 -5.596071720 0.979718089
