33

C -3.298106909 -3.896199942 0.699992836
C -2.455307007 -3.209899902 1.770992756
O -1.708307028 -2.119099855 1.271292806
C -3.028007030 3.848299980 -1.696807146
C -3.222306967 3.928800106 -0.186607152
O -3.973006964 2.842400074 0.326392829
O 0.716793060 1.740399957 -0.466007173
C 0.836893082 0.565999985 -0.166407153
N -0.171107054 -0.229099989 0.287392855
C 2.137193203 -0.113199979 -0.275407165
C 3.299492836 0.480100006 -0.689107180
C 4.398192883 -0.399099976 -0.696607172
C 4.064692974 -1.652799964 -0.290007174
S 2.402893066 -1.786599994 0.110892847
I 3.072651863 -8.068947792 2.193691492
C 1.938035846 -5.514492989 3.686555147
N 0.315808356 -4.933562756 1.885050535
S 4.755368710 -10.852479935 5.909451485
O 2.341124535 -8.944335938 0.380635619
Br 3.874083996 -7.496285915 -0.012613878
P 3.223981380 -8.907033920 0.274912000
I 2.303374767 -9.222804070 2.644851208
S 4.924072266 -9.725208282 -0.792063951
F 4.748602390 -9.261866570 5.823070526
Br 3.816354513 -8.583937645 1.057982206
F 4.174684048 -9.190102577 3.985448122
Cl 2.170375824 -7.025387764 1.407199621
C 2.314323187 -7.590669155 2.888754368
O 1.837294221 -6.801382542 1.876201630
S 5.189254761 -8.239755630 4.598382473
Cl 2.750567913 -7.221051216 0.721657157
C 1.668378353 -4.661533356 1.803014159
S 3.026508093 -9.218656540 3.328454971
