33

C -3.298106909 -3.896199942 0.699992836
C -2.455307007 -3.209899902 1.770992756
O -1.708307028 -2.119099855 1.271292806
C -3.028007030 3.848299980 -1.696807146
C -3.222306967 3.928800106 -0.186607152
O -3.973006964 2.842400074 0.326392829
O 0.716793060 1.740399957 -0.466007173
C 0.836893082 0.565999985 -0.166407153
N -0.171107054 -0.229099989 0.287392855
C 2.137193203 -0.113199979 -0.275407165
C 3.299492836 0.480100006 -0.689107180
C 4.398192883 -0.399099976 -0.696607172
C 4.064692974 -1.652799964 -0.290007174
S 2.402893066 -1.786599994 0.110892847
S 1.361846209 -3.188443899 1.212247491
Cl 2.010164022 -3.121312380 2.623612642
Br -0.094867043 -4.391685963 -0.506625295
S 2.114355803 -6.068219662 2.666994095
C 1.441635013 -3.515513420 2.585452080
Br -0.212006882 -4.270029545 0.650585651
S 1.396720409 -5.221730232 2.138967276
I 1.537485361 -5.313485622 2.968287706
F 3.167670488 -5.064280987 0.055895783
F 3.364022255 -4.580611229 5.058401585
Cl 2.482906103 -3.179635286 1.039659500
O 1.890675783 -4.668291569 1.063303471
O 1.661808968 -2.889309168 1.849520087
P 1.610758185 -3.279888630 0.832943141
C 0.526765466 -3.839751005 -0.483583897
Cl 3.604736090 -6.542816162 2.313074589
Cl 1.246191978 -4.294580936 0.421312094
F -0.640053034 -2.286513329 0.972660542
Br 3.276351213 -5.937888145 1.045004249
