33

C -3.298106909 -3.896199942 0.699992836
C -2.455307007 -3.209899902 1.770992756
O -1.708307028 -2.119099855 1.271292806
C -3.028007030 3.848299980 -1.696807146
C -3.222306967 3.928800106 -0.186607152
O -3.973006964 2.842400074 0.326392829
O 0.716793060 1.740399957 -0.466007173
C 0.836893082 0.565999985 -0.166407153
N -0.171107054 -0.229099989 0.287392855
C 2.137193203 -0.113199979 -0.275407165
C 3.299492836 0.480100006 -0.689107180
C 4.398192883 -0.399099976 -0.696607172
C 4.064692974 -1.652799964 -0.290007174
S 2.402893066 -1.786599994 0.110892847
I 3.238026381 -6.767244339 2.181736708
Br 2.329097986 -3.814602137 2.763720989
I 0.696835518 -4.483112335 1.301823378
O 3.583495140 -8.929712296 4.342733383
I 1.949751735 -8.273369789 -0.053757444
Cl 3.069417477 -7.750037193 0.206708059
C 2.721551657 -6.950554371 0.864507079
I 2.388009787 -7.494994164 2.405897617
F 4.194671631 -8.355891228 -1.457873940
O 3.923799992 -7.925801277 5.514838219
I 3.352374077 -8.011428833 0.820996583
N 3.359733343 -7.260825157 2.911680698
Cl 2.424011707 -5.321298599 1.627906561
P 2.795108557 -6.862407684 1.965169311
C 1.919131279 -6.153838158 0.625860155
Cl 4.225069523 -8.123303413 3.779567957
Cl 1.955006003 -5.621194839 1.908582568
C 1.604289532 -3.073267460 1.474282026
S 2.955268145 -8.264266014 2.250508070
