33

C -3.298106909 -3.896199942 0.699992836
C -2.455307007 -3.209899902 1.770992756
O -1.708307028 -2.119099855 1.271292806
C -3.028007030 3.848299980 -1.696807146
C -3.222306967 3.928800106 -0.186607152
O -3.973006964 2.842400074 0.326392829
O 0.716793060 1.740399957 -0.466007173
C 0.836893082 0.565999985 -0.166407153
N -0.171107054 -0.229099989 0.287392855
C 2.137193203 -0.113199979 -0.275407165
C 3.299492836 0.480100006 -0.689107180
C 4.398192883 -0.399099976 -0.696607172
C 4.064692974 -1.652799964 -0.290007174
S 2.402893066 -1.786599994 0.110892847
I 1.627352118 -3.853230238 1.289125204
Br 1.432093978 -2.943103790 3.022177219
F 0.635699034 -4.650575638 0.336679250
P 2.003212929 -6.245483398 2.857027531
Cl 0.975913525 -4.480088711 2.106932640
Br 0.750035524 -4.808834553 0.743319452
C 1.876453638 -6.604222775 1.854566574
I 1.558107138 -5.636350632 2.430162430
F 3.208022594 -5.649630070 -0.292830586
F 3.159653902 -5.584420681 4.508357048
Cl 2.851948500 -4.804183006 0.819703996
N 2.617021561 -5.350737095 1.029714227
N 2.160184145 -3.036803484 2.316867828
P 1.485999227 -4.257137299 1.062268734
C 0.461861908 -4.635328293 -0.337917566
Cl 4.031838894 -6.419826508 2.626386881
C 0.414735585 -4.589745522 1.507445455
F 0.916063845 -1.823978424 2.113417625
Br 3.969618082 -6.411908150 1.771756172
