33

C -3.298106909 -3.896199942 0.699992836
C -2.455307007 -3.209899902 1.770992756
O -1.708307028 -2.119099855 1.271292806
C -3.028007030 3.848299980 -1.696807146
C -3.222306967 3.928800106 -0.186607152
O -3.973006964 2.842400074 0.326392829
O 0.716793060 1.740399957 -0.466007173
C 0.836893082 0.565999985 -0.166407153
N -0.171107054 -0.229099989 0.287392855
C 2.137193203 -0.113199979 -0.275407165
C 3.299492836 0.480100006 -0.689107180
C 4.398192883 -0.399099976 -0.696607172
C 4.064692974 -1.652799964 -0.290007174
S 2.402893066 -1.786599994 0.110892847
N 5.115310192 -11.391473770 4.067320824
C 1.978082299 -7.284728527 3.526018381
O 0.805755675 -5.978710651 2.726161480
C 6.059681416 -13.529045105 5.560976982
C 3.725251198 -11.913928032 1.752355576
C 4.709967613 -10.736438751 0.563071012
C 4.661654472 -11.950915337 0.590012968
C 4.993539810 -12.610492706 4.976861954
O 5.402873039 -11.448903084 -0.249577507
C 5.851000786 -12.587176323 6.639365196
C 3.727368355 -10.425490379 1.233908534
C 4.393346310 -12.239360809 5.947428703
C 1.599154711 -8.132547379 1.931059957
C 2.667007208 -9.745055199 2.754019499
C 2.937580347 -7.631715775 2.150792599
C 5.343996048 -11.338314056 5.813897610
C 5.182117462 -9.506795883 0.927098393
C 1.868575692 -6.357473373 2.374538183
C 3.558371305 -11.462224960 3.747483492
