33

C -3.298106909 -3.896199942 0.699992836
C -2.455307007 -3.209899902 1.770992756
O -1.708307028 -2.119099855 1.271292806
C -3.028007030 3.848299980 -1.696807146
C -3.222306967 3.928800106 -0.186607152
O -3.973006964 2.842400074 0.326392829
O 0.716793060 1.740399957 -0.466007173
C 0.836893082 0.565999985 -0.166407153
N -0.171107054 -0.229099989 0.287392855
C 2.137193203 -0.113199979 -0.275407165
C 3.299492836 0.480100006 -0.689107180
C 4.398192883 -0.399099976 -0.696607172
C 4.064692974 -1.652799964 -0.290007174
S 2.402893066 -1.786599994 0.110892847
I 3.724508047 -6.917875290 2.750972986
C 1.960887909 -4.078542233 3.053788900
C 0.299455404 -4.231709957 1.825854301
O 3.735502720 -9.277049065 4.636306763
I 2.230451107 -8.255023956 0.510637522
Cl 3.706360817 -7.722168922 -0.314298600
P 2.812503576 -7.710593224 1.015155077
I 2.141211748 -8.098527908 2.656311512
F 4.856925011 -8.728659630 -1.282598019
F 4.250133991 -8.520363808 5.284088612
O 3.307024240 -8.447095871 0.946718037
N 3.664492607 -7.419916630 3.746874332
Cl 2.100673199 -5.949073315 1.394740939
P 2.369742632 -6.913273335 1.997108698
I 2.043735266 -6.374152184 0.673173904
F 4.083640575 -7.918173313 3.927283049
Cl 2.188644171 -6.071351051 1.478389978
C 1.467449665 -3.327571392 1.454725742
S 2.697382212 -8.278326988 2.060848951
