33

C -3.298106909 -3.896199942 0.699992836
C -2.455307007 -3.209899902 1.770992756
O -1.708307028 -2.119099855 1.271292806
C -3.028007030 3.848299980 -1.696807146
C -3.222306967 3.928800106 -0.186607152
O -3.973006964 2.842400074 0.326392829
O 0.716793060 1.740399957 -0.466007173
C 0.836893082 0.565999985 -0.166407153
N -0.171107054 -0.229099989 0.287392855
C 2.137193203 -0.113199979 -0.275407165
C 3.299492836 0.480100006 -0.689107180
C 4.398192883 -0.399099976 -0.696607172
C 4.064692974 -1.652799964 -0.290007174
S 2.402893066 -1.786599994 0.110892847
N 1.255683899 -3.287398577 1.840282559
I 1.924212575 -3.507458687 1.230244517
Br 0.467387795 -3.518547535 -0.213352337
N 1.774259567 -4.916093826 1.851000905
Cl 1.946080446 -2.481274366 2.048917770
N 0.563774705 -3.400329351 0.379303008
N 0.581033885 -2.109325886 1.260055065
I 0.587912321 -5.058540821 1.077812552
F 2.353949070 -3.369174480 -0.027142800
C 1.478844047 -4.635674477 4.044755936
Cl 2.517835379 -2.759429216 0.887894273
O 2.196851492 -2.838765860 -0.328788072
N 1.998947263 -1.274062991 0.912307620
P 1.523202062 -2.492334366 1.273976803
C -0.479587525 -2.965805054 -0.373654038
Cl 1.543798804 -6.255657196 2.163934946
S 2.227394342 -4.309552670 -0.515470564
F -1.499317288 -0.973998725 0.817670047
O 2.494475842 -4.420621395 1.229589105
