33

C -3.298106909 -3.896199942 0.699992836
C -2.455307007 -3.209899902 1.770992756
O -1.708307028 -2.119099855 1.271292806
C -3.028007030 3.848299980 -1.696807146
C -3.222306967 3.928800106 -0.186607152
O -3.973006964 2.842400074 0.326392829
O 0.716793060 1.740399957 -0.466007173
C 0.836893082 0.565999985 -0.166407153
N -0.171107054 -0.229099989 0.287392855
C 2.137193203 -0.113199979 -0.275407165
C 3.299492836 0.480100006 -0.689107180
C 4.398192883 -0.399099976 -0.696607172
C 4.064692974 -1.652799964 -0.290007174
S 2.402893066 -1.786599994 0.110892847
I 3.154253006 -8.228857994 2.143600225
C 1.732941270 -5.578246117 3.753949642
N 0.497152120 -4.845903397 2.043537617
S 4.839723587 -11.071994781 6.001688004
O 2.262883425 -9.016905785 0.238860488
Br 3.822804928 -7.600561619 0.030254796
P 3.302277565 -9.040189743 0.009739488
I 2.559358120 -9.419628143 2.568130493
S 4.832330704 -9.812738419 -0.920040429
F 4.837940693 -8.924864769 5.826052189
Br 3.761678696 -8.607285500 1.154022813
F 4.310762882 -9.450429916 3.859920502
S 2.083636284 -7.267548561 1.492471218
F 2.212737799 -7.880985737 2.828704357
O 1.989112616 -6.933142185 1.881286740
S 5.373354912 -8.449698448 4.564123154
Cl 2.653056622 -7.238439083 0.875898242
C 1.624663711 -4.664409637 1.514138818
S 3.165851831 -9.375201225 3.387524605
