33

C -3.298106909 -3.896199942 0.699992836
C -2.455307007 -3.209899902 1.770992756
O -1.708307028 -2.119099855 1.271292806
C -3.028007030 3.848299980 -1.696807146
C -3.222306967 3.928800106 -0.186607152
O -3.973006964 2.842400074 0.326392829
O 0.716793060 1.740399957 -0.466007173
C 0.836893082 0.565999985 -0.166407153
N -0.171107054 -0.229099989 0.287392855
C 2.137193203 -0.113199979 -0.275407165
C 3.299492836 0.480100006 -0.689107180
C 4.398192883 -0.399099976 -0.696607172
C 4.064692974 -1.652799964 -0.290007174
S 2.402893066 -1.786599994 0.110892847
I 4.924619198 -10.323781967 3.547529221
Br 1.531881452 -6.995240211 3.851742983
F 0.440818727 -6.086006165 2.752824306
C 6.296829700 -12.767582893 6.154959202
I 2.908717632 -11.581785202 1.175725937
Cl 4.249763489 -9.931392670 0.606954515
P 4.856526852 -11.238415718 0.706788838
C 4.161733150 -11.752638817 4.299006939
F 5.719714642 -11.381949425 -0.779648364
C 5.377556324 -12.046604156 6.374155045
N 3.348534107 -9.812482834 1.614563107
S 4.718644142 -11.602584839 5.266094685
P 1.139423728 -7.733145237 1.719164371
Cl 2.374015331 -9.469435692 2.618727922
S 2.491001129 -7.335112095 2.149992943
S 5.468940258 -10.773883820 5.898269653
F 4.455797195 -9.425337791 0.576935649
C 1.657615900 -5.671033859 2.161767960
S 3.555761576 -10.946773529 4.010622025
