33

C -3.298106909 -3.896199942 0.699992836
C -2.455307007 -3.209899902 1.770992756
O -1.708307028 -2.119099855 1.271292806
C -3.028007030 3.848299980 -1.696807146
C -3.222306967 3.928800106 -0.186607152
O -3.973006964 2.842400074 0.326392829
O 0.716793060 1.740399957 -0.466007173
C 0.836893082 0.565999985 -0.166407153
N -0.171107054 -0.229099989 0.287392855
C 2.137193203 -0.113199979 -0.275407165
C 3.299492836 0.480100006 -0.689107180
C 4.398192883 -0.399099976 -0.696607172
C 4.064692974 -1.652799964 -0.290007174
S 2.402893066 -1.786599994 0.110892847
I 3.071272850 -7.686047077 1.997383356
Br 1.863217354 -5.468300343 3.454452515
N 0.387035996 -4.925270081 1.906155348
S 4.529050827 -10.669050217 5.997831345
Cl 2.517197847 -8.605049133 0.368099988
Cl 3.954248190 -7.388061523 -0.380994558
P 2.996769905 -8.924298286 0.363739133
O 2.211447954 -9.053843498 2.621281385
S 4.783593178 -9.588217735 -1.204967380
F 4.739683151 -9.324645996 5.833963871
Br 3.773089170 -8.625871658 1.064824343
F 4.018105030 -8.967850685 3.819212914
Cl 1.880708694 -7.051825523 1.625397205
C 2.292749405 -7.440495491 2.965065479
O 2.043615580 -6.705629349 1.756019354
S 5.145666122 -8.162219048 4.348231316
Cl 2.594801426 -6.968935013 0.840634763
S 1.920972943 -4.518914223 1.693540454
S 2.933641911 -9.326873779 3.072182894
