33

C -3.298106909 -3.896199942 0.699992836
C -2.455307007 -3.209899902 1.770992756
O -1.708307028 -2.119099855 1.271292806
C -3.028007030 3.848299980 -1.696807146
C -3.222306967 3.928800106 -0.186607152
O -3.973006964 2.842400074 0.326392829
O 0.716793060 1.740399957 -0.466007173
C 0.836893082 0.565999985 -0.166407153
N -0.171107054 -0.229099989 0.287392855
C 2.137193203 -0.113199979 -0.275407165
C 3.299492836 0.480100006 -0.689107180
C 4.398192883 -0.399099976 -0.696607172
C 4.064692974 -1.652799964 -0.290007174
S 2.402893066 -1.786599994 0.110892847
S 1.258226633 -3.210929155 2.665474653
N 2.292377710 -3.038008213 1.052725196
I 1.135122895 -2.716545820 -0.479505777
N 1.425819039 -4.486659050 1.305612564
F 1.328294158 -2.607872009 0.855669498
N 0.379721284 -2.501678944 -0.578462422
N 0.838431358 -1.736038089 1.280549049
Br 0.270285368 -4.223748684 1.797671318
C 1.282624841 -2.377444506 0.686600208
C 1.351644516 -3.180697680 2.913822412
Cl 2.237345219 -1.993920565 1.961707115
O 1.250486732 -1.213699460 0.364859670
N 1.124462605 -1.268109918 1.561270595
Br 1.554431438 -1.031564474 1.400371552
C -1.000293612 -1.543042302 0.072751015
F 1.483029842 -4.992340088 2.672721148
S 3.037813187 -3.524440765 -1.510572433
O -0.333265722 -0.790460348 0.892467856
Br 2.030119181 -4.286396027 0.912493110
