33

C -3.298106909 -3.896199942 0.699992836
C -2.455307007 -3.209899902 1.770992756
O -1.708307028 -2.119099855 1.271292806
C -3.028007030 3.848299980 -1.696807146
C -3.222306967 3.928800106 -0.186607152
O -3.973006964 2.842400074 0.326392829
O 0.716793060 1.740399957 -0.466007173
C 0.836893082 0.565999985 -0.166407153
N -0.171107054 -0.229099989 0.287392855
C 2.137193203 -0.113199979 -0.275407165
C 3.299492836 0.480100006 -0.689107180
C 4.398192883 -0.399099976 -0.696607172
C 4.064692974 -1.652799964 -0.290007174
S 2.402893066 -1.786599994 0.110892847
Cl -4.330180168 -9.316094398 4.325107574
S -1.147882581 -6.752548218 2.647937298
O -4.413637161 -9.057997704 0.961336732
F -5.006934166 -8.542020798 4.047077179
C -1.606743217 -6.774895191 0.656059146
N -3.821299314 -10.341823578 1.443856835
Cl -3.972999573 -11.457114220 1.972563267
C -4.164448738 -10.779081345 4.469942093
S -0.554850817 -6.391617298 2.998188019
C -1.725970268 -7.924294949 2.734318256
C -3.908370972 -9.858016014 3.392400265
C -2.407349586 -11.707839012 4.624558926
N -2.513887167 -10.705669403 3.096535921
Br -1.122349024 -9.273398399 4.230216503
O -4.684179783 -12.221721649 3.359786510
Cl -0.287953973 -7.219374180 1.784827471
P -1.220826268 -7.500581741 3.059083462
F -2.983551264 -6.034633160 2.464610338
P -3.838566303 -7.939474106 3.034905195
