33

C -3.298106909 -3.896199942 0.699992836
C -2.455307007 -3.209899902 1.770992756
O -1.708307028 -2.119099855 1.271292806
C -3.028007030 3.848299980 -1.696807146
C -3.222306967 3.928800106 -0.186607152
O -3.973006964 2.842400074 0.326392829
O 0.716793060 1.740399957 -0.466007173
C 0.836893082 0.565999985 -0.166407153
N -0.171107054 -0.229099989 0.287392855
C 2.137193203 -0.113199979 -0.275407165
C 3.299492836 0.480100006 -0.689107180
C 4.398192883 -0.399099976 -0.696607172
C 4.064692974 -1.652799964 -0.290007174
S 2.402893066 -1.786599994 0.110892847
C -4.347476959 -11.011010170 4.067416191
C -1.226227999 -7.809180737 3.742460012
O -5.082316875 -10.208330154 1.494691730
C -5.836390972 -11.059350967 4.143175602
C -1.667947292 -7.162147999 1.323625684
C -4.342738628 -11.716972351 2.085422039
C -3.723138571 -13.878634453 3.192749500
C -5.135603428 -12.346710205 5.568611622
N -0.658195257 -7.463609695 2.845370531
C -1.749401689 -10.435387611 3.854786158
C -4.872658253 -12.602122307 3.910014153
C -2.807721615 -12.826587677 4.731283188
C -3.301005602 -12.059998512 3.949793577
C -3.045252323 -10.848152161 5.148601532
C -4.933524132 -13.764423370 4.085473061
C -0.843496919 -8.645896912 2.192069769
C -1.869289398 -9.111904144 3.116101980
C -3.016666889 -8.114115715 2.772457838
C -3.384887934 -10.253960609 3.057194233
