33

C -3.298106909 -3.896199942 0.699992836
C -2.455307007 -3.209899902 1.770992756
O -1.708307028 -2.119099855 1.271292806
C -3.028007030 3.848299980 -1.696807146
C -3.222306967 3.928800106 -0.186607152
O -3.973006964 2.842400074 0.326392829
O 0.716793060 1.740399957 -0.466007173
C 0.836893082 0.565999985 -0.166407153
N -0.171107054 -0.229099989 0.287392855
C 2.137193203 -0.113199979 -0.275407165
C 3.299492836 0.480100006 -0.689107180
C 4.398192883 -0.399099976 -0.696607172
C 4.064692974 -1.652799964 -0.290007174
S 2.402893066 -1.786599994 0.110892847
C -4.369134903 -10.921088219 4.045082092
N -1.188152432 -7.998989105 3.916426897
O -5.177350044 -9.926128387 1.649086833
F -5.823162556 -10.825494766 4.338581085
C -1.698126316 -7.195588589 1.340254903
N -4.301402569 -11.577002525 2.137031794
C -3.826323986 -13.886246681 3.154075861
S -5.154450893 -12.388202667 5.400525093
N -0.604222596 -7.406857967 2.810325861
S -1.561651111 -10.250888824 3.814106226
C -4.715307236 -12.408008575 3.846853495
P -2.504239082 -12.494040489 4.821862698
C -3.229587793 -12.046595573 3.948872089
C -2.987789392 -10.675411224 5.114892006
C -4.677391052 -13.579536438 4.036800861
C -0.786137283 -8.663043022 2.147852659
C -1.785459876 -8.805740356 3.095013618
F -2.955029726 -8.045799255 2.585089922
C -3.294764996 -10.159389496 3.071281433
