33

C -3.298106909 -3.896199942 0.699992836
C -2.455307007 -3.209899902 1.770992756
O -1.708307028 -2.119099855 1.271292806
C -3.028007030 3.848299980 -1.696807146
C -3.222306967 3.928800106 -0.186607152
O -3.973006964 2.842400074 0.326392829
O 0.716793060 1.740399957 -0.466007173
C 0.836893082 0.565999985 -0.166407153
N -0.171107054 -0.229099989 0.287392855
C 2.137193203 -0.113199979 -0.275407165
C 3.299492836 0.480100006 -0.689107180
C 4.398192883 -0.399099976 -0.696607172
C 4.064692974 -1.652799964 -0.290007174
S 2.402893066 -1.786599994 0.110892847
Cl -4.622714520 -10.433056831 3.925264359
I -0.553794742 -7.931458950 3.326140404
F -4.485927105 -9.745775223 1.478669405
C -5.612167358 -10.368304253 4.442591667
C -1.680970192 -6.946125031 1.260926843
P -4.104761600 -11.054042816 2.381872177
P -3.996002436 -13.129200935 2.825724602
Br -4.808510303 -11.839528084 5.911171436
N -0.372086048 -7.086859703 2.731699705
C -1.394497156 -9.982255936 3.867474556
N -4.914755821 -11.639711380 3.711151838
C -2.197029352 -12.449591637 4.688474655
N -3.076954365 -11.334928513 3.702084064
P -2.192639351 -10.783898354 5.125794411
S -4.845285416 -13.013401031 3.790978670
F -0.589826286 -7.701942444 1.806246400
O -1.866496086 -8.328488350 3.053148270
O -2.602725983 -7.534586906 2.592901945
C -2.928729534 -9.630949020 2.859086037
