33

C -3.298106909 -3.896199942 0.699992836
C -2.455307007 -3.209899902 1.770992756
O -1.708307028 -2.119099855 1.271292806
C -3.028007030 3.848299980 -1.696807146
C -3.222306967 3.928800106 -0.186607152
O -3.973006964 2.842400074 0.326392829
O 0.716793060 1.740399957 -0.466007173
C 0.836893082 0.565999985 -0.166407153
N -0.171107054 -0.229099989 0.287392855
C 2.137193203 -0.113199979 -0.275407165
C 3.299492836 0.480100006 -0.689107180
C 4.398192883 -0.399099976 -0.696607172
C 4.064692974 -1.652799964 -0.290007174
S 2.402893066 -1.786599994 0.110892847
P -2.107911110 -4.214251518 1.226140141
P 1.055893779 -3.500660896 1.854289889
Br -1.566064239 -3.767120600 0.055330455
F -2.156877279 -5.164092541 1.437483191
Br -1.519542933 -4.376563549 1.326015592
Cl -1.744989991 -5.180041313 1.320215583
Cl -0.723933280 -6.205052853 1.625177979
S -1.807106733 -4.532859802 4.106471062
F -0.765605569 -3.923951149 2.198456764
O -0.632213354 -3.040453434 1.279006958
S -0.547170222 -4.955073357 0.796924949
O -0.868322432 -5.815761566 1.892130494
N -3.086541176 -5.274525642 2.938652515
Br -0.896048188 -5.783158302 4.027542114
F -3.407664776 -6.762442112 3.067794085
O -0.243835658 -5.100878239 0.981427133
F -1.124094248 -3.921801805 1.496576548
Br -1.176834822 -2.567603350 2.936038017
N -1.504556894 -4.679138184 3.451428413
