33

C -3.298106909 -3.896199942 0.699992836
C -2.455307007 -3.209899902 1.770992756
O -1.708307028 -2.119099855 1.271292806
C -3.028007030 3.848299980 -1.696807146
C -3.222306967 3.928800106 -0.186607152
O -3.973006964 2.842400074 0.326392829
O 0.716793060 1.740399957 -0.466007173
C 0.836893082 0.565999985 -0.166407153
N -0.171107054 -0.229099989 0.287392855
C 2.137193203 -0.113199979 -0.275407165
C 3.299492836 0.480100006 -0.689107180
C 4.398192883 -0.399099976 -0.696607172
C 4.064692974 -1.652799964 -0.290007174
S 2.402893066 -1.786599994 0.110892847
P -2.601735592 -3.966729164 1.032264113
P 1.337012410 -3.140222073 2.031252146
Br -1.204737544 -3.982486248 0.899557948
F -2.279004812 -4.625858784 1.527504206
O -1.244561791 -4.305421352 1.732730865
C -1.764612794 -5.041648865 0.863755167
Cl -0.417092174 -5.714764595 1.399112225
C -2.392611980 -4.136399269 3.644626856
F -0.359610736 -3.546744347 1.780183792
P -0.210403532 -3.063466787 1.071005702
S -0.424915075 -4.969358921 0.623406827
O -0.862506568 -5.709418297 1.890245199
N -2.805060387 -4.729081631 2.808518648
I -0.527516544 -4.863220215 4.189609528
F -3.218894005 -7.169660568 3.018172979
S -0.192049235 -4.851241589 1.276198268
F -0.734704971 -4.021948814 1.261687517
Br -0.639344811 -2.210956573 2.956458092
N -1.466186285 -4.702890873 3.818528414
