33

C -3.298106909 -3.896199942 0.699992836
C -2.455307007 -3.209899902 1.770992756
O -1.708307028 -2.119099855 1.271292806
C -3.028007030 3.848299980 -1.696807146
C -3.222306967 3.928800106 -0.186607152
O -3.973006964 2.842400074 0.326392829
O 0.716793060 1.740399957 -0.466007173
C 0.836893082 0.565999985 -0.166407153
N -0.171107054 -0.229099989 0.287392855
C 2.137193203 -0.113199979 -0.275407165
C 3.299492836 0.480100006 -0.689107180
C 4.398192883 -0.399099976 -0.696607172
C 4.064692974 -1.652799964 -0.290007174
S 2.402893066 -1.786599994 0.110892847
P -3.217286348 -5.456891537 2.169745445
P 0.791081131 -4.084272861 1.838084221
Br -2.505432129 -5.030011654 1.065847278
F -3.113228083 -5.399023533 2.158343554
Br -0.823147595 -4.102101326 1.065330148
Cl -2.729273796 -6.710825920 1.460493326
Cl -0.880601406 -7.212252617 1.254618406
C -2.919435501 -6.481275082 4.081317425
Cl -1.466878891 -4.483396530 3.775817156
O -1.392118812 -5.433452129 2.944191933
I -2.404671907 -5.546245098 1.646716595
O -0.913482666 -7.753780842 2.343189716
N -2.967252493 -6.683124542 1.582150459
C -1.434449792 -6.760581970 3.619163275
P -4.126650810 -6.522838116 3.406658888
O 0.194605514 -5.009307861 0.964063942
N -1.162039280 -4.726178169 1.498577118
Br -1.029909611 -3.323824406 1.964502573
P -3.062216520 -4.923631191 2.697858810
