33

C -3.298106909 -3.896199942 0.699992836
C -2.455307007 -3.209899902 1.770992756
O -1.708307028 -2.119099855 1.271292806
C -3.028007030 3.848299980 -1.696807146
C -3.222306967 3.928800106 -0.186607152
O -3.973006964 2.842400074 0.326392829
O 0.716793060 1.740399957 -0.466007173
C 0.836893082 0.565999985 -0.166407153
N -0.171107054 -0.229099989 0.287392855
C 2.137193203 -0.113199979 -0.275407165
C 3.299492836 0.480100006 -0.689107180
C 4.398192883 -0.399099976 -0.696607172
C 4.064692974 -1.652799964 -0.290007174
S 2.402893066 -1.786599994 0.110892847
P -0.389496684 -2.755779505 -0.012263492
P 0.805070519 -4.203905106 2.678623438
O -1.453022480 -3.521142960 0.031859159
S -1.700566292 -5.329674244 0.938333631
Br -1.641860127 -2.719521046 1.082891583
C -1.599572062 -4.476250172 1.018493772
N -1.645507336 -4.778532505 0.387439042
N -2.816760778 -3.207225323 2.107675076
F 0.043392286 -2.327088118 1.663030744
N 0.126949862 -2.408687115 1.023824453
N -0.489120841 -4.134232521 -0.268911809
Br -0.873721957 -4.650532246 0.410925001
Br -0.776967704 -3.918495655 1.891437292
I -0.606851816 -4.036824226 3.103631020
F -3.159396410 -5.685883522 2.473553896
S -0.767865062 -3.829280853 1.021326065
N 0.800521255 -3.429476738 1.501844049
O -0.871189475 -1.954806209 2.594168663
N -2.191183567 -5.055203915 3.362811804
