33

C -3.298106909 -3.896199942 0.699992836
C -2.455307007 -3.209899902 1.770992756
O -1.708307028 -2.119099855 1.271292806
C -3.028007030 3.848299980 -1.696807146
C -3.222306967 3.928800106 -0.186607152
O -3.973006964 2.842400074 0.326392829
O 0.716793060 1.740399957 -0.466007173
C 0.836893082 0.565999985 -0.166407153
N -0.171107054 -0.229099989 0.287392855
C 2.137193203 -0.113199979 -0.275407165
C 3.299492836 0.480100006 -0.689107180
C 4.398192883 -0.399099976 -0.696607172
C 4.064692974 -1.652799964 -0.290007174
S 2.402893066 -1.786599994 0.110892847
P -4.563940525 -9.983624458 4.116846561
S -0.874290347 -7.488123894 3.260322809
F -4.276117325 -9.063942909 1.080478311
F -5.420304298 -9.434391022 4.002438068
C -1.307739258 -6.827209473 0.783959448
P -3.534232140 -10.827678680 1.494038105
Cl -3.976101398 -12.080790520 2.442224503
C -4.997601986 -11.526938438 5.265323162
S -0.230180040 -6.746844292 3.035650969
C -1.935428023 -8.233532906 3.247599602
C -4.767158031 -10.675692558 3.230636358
P -1.963832498 -11.861456871 5.099482059
N -2.856134176 -10.885256767 3.574655294
Br -1.630390763 -10.299123764 4.765040874
O -4.685695171 -12.926329613 3.430818796
Cl 0.156750888 -7.079893589 1.914062381
P -1.483711004 -7.818274975 3.200176716
N -2.480998516 -6.302698612 2.281841040
C -3.810997009 -8.612565994 2.997354507
