33

C -3.298106909 -3.896199942 0.699992836
C -2.455307007 -3.209899902 1.770992756
O -1.708307028 -2.119099855 1.271292806
C -3.028007030 3.848299980 -1.696807146
C -3.222306967 3.928800106 -0.186607152
O -3.973006964 2.842400074 0.326392829
O 0.716793060 1.740399957 -0.466007173
C 0.836893082 0.565999985 -0.166407153
N -0.171107054 -0.229099989 0.287392855
C 2.137193203 -0.113199979 -0.275407165
C 3.299492836 0.480100006 -0.689107180
C 4.398192883 -0.399099976 -0.696607172
C 4.064692974 -1.652799964 -0.290007174
S 2.402893066 -1.786599994 0.110892847
Cl -4.542782307 -8.785823822 3.967720747
S -0.203848258 -6.098670006 2.544785976
F -3.621847391 -8.699783325 0.733950794
F -4.874881268 -7.561987877 3.860553980
Br -1.429129124 -6.286158562 0.866146743
N -3.381829977 -10.187058449 1.458336949
Cl -3.430167675 -10.706394196 1.980433106
N -3.343227863 -10.569888115 4.962701321
S -0.506899297 -5.962952614 3.496214390
P -1.463988543 -7.659423828 3.577672958
I -3.562920332 -9.227398872 2.683182001
C -2.674663782 -11.425784111 4.236701965
N -2.893457413 -9.913589478 2.552936554
Br -1.281166077 -9.162120819 4.082145214
P -4.742242813 -11.155569077 2.987408400
Cl -0.169308767 -6.717331886 2.135906696
P -1.141881704 -7.699678421 2.561444998
F -2.567113161 -5.738425732 2.469162464
C -3.541314602 -8.292942047 3.068001986
