33

C -3.298106909 -3.896199942 0.699992836
C -2.455307007 -3.209899902 1.770992756
O -1.708307028 -2.119099855 1.271292806
C -3.028007030 3.848299980 -1.696807146
C -3.222306967 3.928800106 -0.186607152
O -3.973006964 2.842400074 0.326392829
O 0.716793060 1.740399957 -0.466007173
C 0.836893082 0.565999985 -0.166407153
N -0.171107054 -0.229099989 0.287392855
C 2.137193203 -0.113199979 -0.275407165
C 3.299492836 0.480100006 -0.689107180
C 4.398192883 -0.399099976 -0.696607172
C 4.064692974 -1.652799964 -0.290007174
S 2.402893066 -1.786599994 0.110892847
Br -4.637522221 -10.627100945 3.706440449
N -0.745673180 -7.941030979 3.253158808
F -4.304702759 -9.549477577 1.588937521
Cl -5.525298119 -9.890176773 4.432455540
C -1.881556392 -7.032473087 1.167691469
P -3.571285725 -10.893335342 2.069798946
P -3.652110100 -13.034452438 3.025814056
Br -5.139058590 -11.434729576 5.710714817
Cl -0.205518872 -6.802516460 2.750118732
C -1.534083009 -9.665798187 3.653814077
C -4.943346024 -11.674086571 3.597984552
C -2.268180609 -12.170319557 4.966043472
N -2.781213999 -11.194978714 3.517479420
Br -1.876889229 -10.438170433 5.109996796
P -4.544219017 -12.827328682 3.908865929
F -0.200568467 -7.454063416 1.501068473
P -1.672170877 -7.845098972 2.794399261
F -2.450394630 -7.081213951 2.597206593
C -2.802825212 -8.691761017 2.914232731
