33

C -3.298106909 -3.896199942 0.699992836
C -2.455307007 -3.209899902 1.770992756
O -1.708307028 -2.119099855 1.271292806
C -3.028007030 3.848299980 -1.696807146
C -3.222306967 3.928800106 -0.186607152
O -3.973006964 2.842400074 0.326392829
O 0.716793060 1.740399957 -0.466007173
C 0.836893082 0.565999985 -0.166407153
N -0.171107054 -0.229099989 0.287392855
C 2.137193203 -0.113199979 -0.275407165
C 3.299492836 0.480100006 -0.689107180
C 4.398192883 -0.399099976 -0.696607172
C 4.064692974 -1.652799964 -0.290007174
S 2.402893066 -1.786599994 0.110892847
P -4.499634266 -9.954252243 3.924510002
S -1.118746877 -7.420960426 3.093177080
F -4.424709797 -9.095803261 0.915631235
Cl -5.399993420 -9.163537025 4.029233932
P -1.359632492 -6.802989006 0.875863075
N -3.447000742 -10.870274544 1.578362584
Cl -3.940875292 -12.266216278 2.369358778
N -4.812895298 -11.514151573 4.895446301
S -0.180297047 -6.656118393 2.872898817
C -2.076154232 -8.227854729 3.125296116
C -4.601809025 -10.736946106 3.435283661
P -1.842637420 -11.949705124 5.078883648
N -2.805243015 -10.843812943 3.373264790
Br -1.525339246 -10.061159134 4.838915825
O -4.534425259 -12.901404381 3.422137499
Cl 0.120995089 -7.291081429 1.876815677
C -1.353457451 -7.364772797 3.040130138
N -2.202548265 -6.224844456 2.154295206
C -3.788885593 -8.281894684 2.872686386
