33

C -3.298106909 -3.896199942 0.699992836
C -2.455307007 -3.209899902 1.770992756
O -1.708307028 -2.119099855 1.271292806
C -3.028007030 3.848299980 -1.696807146
C -3.222306967 3.928800106 -0.186607152
O -3.973006964 2.842400074 0.326392829
O 0.716793060 1.740399957 -0.466007173
C 0.836893082 0.565999985 -0.166407153
N -0.171107054 -0.229099989 0.287392855
C 2.137193203 -0.113199979 -0.275407165
C 3.299492836 0.480100006 -0.689107180
C 4.398192883 -0.399099976 -0.696607172
C 4.064692974 -1.652799964 -0.290007174
S 2.402893066 -1.786599994 0.110892847
O -0.530308723 -1.315347075 -0.786860347
O 0.227470934 -2.266047955 0.833589673
O -0.562799335 -2.919396639 0.252777219
N -2.008090019 -1.923618555 0.472820669
P -0.269236922 -1.128424168 -0.878210545
P -1.883488297 -1.563235283 0.431556523
Cl -1.189475417 -2.223086596 0.519954443
I 0.208359689 -2.627248526 0.326630861
F 2.001854420 -1.653165340 1.118892074
S -1.007013679 -1.879824162 -0.312611312
Br -1.617899179 -2.694627285 -1.125274301
F -0.249921173 -1.260845423 -0.778184414
N 0.178850874 -0.882319510 -0.013642848
S 0.153305262 -2.055340528 -1.273875475
N -2.025440454 -1.201674223 1.820053339
I -1.081566334 -0.708059192 0.471953005
I -1.614579916 -1.250532389 1.635912418
I -0.360518754 -1.860527396 -0.837559700
N -1.562951088 -0.538338661 0.445252687
