33

C -3.298106909 -3.896199942 0.699992836
C -2.455307007 -3.209899902 1.770992756
O -1.708307028 -2.119099855 1.271292806
C -3.028007030 3.848299980 -1.696807146
C -3.222306967 3.928800106 -0.186607152
O -3.973006964 2.842400074 0.326392829
O 0.716793060 1.740399957 -0.466007173
C 0.836893082 0.565999985 -0.166407153
N -0.171107054 -0.229099989 0.287392855
C 2.137193203 -0.113199979 -0.275407165
C 3.299492836 0.480100006 -0.689107180
C 4.398192883 -0.399099976 -0.696607172
C 4.064692974 -1.652799964 -0.290007174
S 2.402893066 -1.786599994 0.110892847
P -3.329729319 -5.236075401 1.938530684
P 0.834856868 -4.392419815 2.154552698
Br -1.428449750 -4.650442600 0.512040734
F -3.061505795 -5.345205307 2.342488766
C -1.070987940 -4.339827538 1.257186294
Cl -1.930263281 -5.832810879 1.536887050
Cl -0.851693988 -7.307518005 2.005411625
C -2.626822472 -5.841074944 3.470371008
S -0.118719660 -4.497888088 2.959210634
I -1.340323210 -5.037318707 2.489538670
S -2.534966946 -4.909599304 1.871497512
O -0.652681649 -7.119773388 2.672512293
N -2.594537020 -6.069788456 1.910742640
Br -1.386833429 -6.686292171 3.025321484
P -3.942882061 -6.932835102 3.547003031
O -0.072538324 -4.813555241 1.333342552
N -1.358256221 -4.478963375 2.042985916
Br -1.492372513 -2.564702272 2.971607685
P -2.555221796 -4.428538322 3.214285851
