33

C -3.298106909 -3.896199942 0.699992836
C -2.455307007 -3.209899902 1.770992756
O -1.708307028 -2.119099855 1.271292806
C -3.028007030 3.848299980 -1.696807146
C -3.222306967 3.928800106 -0.186607152
O -3.973006964 2.842400074 0.326392829
O 0.716793060 1.740399957 -0.466007173
C 0.836893082 0.565999985 -0.166407153
N -0.171107054 -0.229099989 0.287392855
C 2.137193203 -0.113199979 -0.275407165
C 3.299492836 0.480100006 -0.689107180
C 4.398192883 -0.399099976 -0.696607172
C 4.064692974 -1.652799964 -0.290007174
S 2.402893066 -1.786599994 0.110892847
C -4.541570663 -10.419547081 3.711721897
N -0.683884919 -7.935071468 3.401289225
F -4.878060341 -9.972290039 1.719453812
Cl -5.795917988 -10.749180794 4.399374962
C -1.642115474 -7.064160824 1.380730987
N -4.193259716 -11.343955040 2.385779858
P -4.014186382 -13.600274086 2.942479610
Br -4.908283710 -12.044420242 5.792643547
N -0.488566220 -7.128026962 2.461452007
C -1.668369532 -10.136314392 3.687046528
F -4.653776169 -12.089115143 3.623928785
C -2.431809187 -12.502361298 5.026882172
C -2.994054556 -11.586743355 3.684297800
C -2.336771727 -10.799659729 5.262418747
S -4.984056950 -13.074516296 3.847966194
F -0.885967135 -7.828373909 2.109663486
P -1.921630979 -8.380248070 3.026922703
S -2.832607508 -7.668848515 2.408882141
C -2.893872261 -9.774347305 3.034219980
