33

C -3.298106909 -3.896199942 0.699992836
C -2.455307007 -3.209899902 1.770992756
O -1.708307028 -2.119099855 1.271292806
C -3.028007030 3.848299980 -1.696807146
C -3.222306967 3.928800106 -0.186607152
O -3.973006964 2.842400074 0.326392829
O 0.716793060 1.740399957 -0.466007173
C 0.836893082 0.565999985 -0.166407153
N -0.171107054 -0.229099989 0.287392855
C 2.137193203 -0.113199979 -0.275407165
C 3.299492836 0.480100006 -0.689107180
C 4.398192883 -0.399099976 -0.696607172
C 4.064692974 -1.652799964 -0.290007174
S 2.402893066 -1.786599994 0.110892847
Cl -3.323789835 -7.271561146 3.106159687
S 0.576096714 -5.326815128 2.620804310
F -3.366677046 -8.317809105 1.446085095
F -4.817780495 -7.184669495 2.606010199
N -1.182869434 -5.939292908 0.773437083
N -3.488249779 -9.055447578 1.678293467
Cl -2.514207125 -9.933252335 1.188603401
N -3.273696661 -9.465392113 4.350791931
S -0.896022022 -5.483988762 3.592962503
P -1.597784400 -6.757935524 3.672732115
I -3.246012688 -7.489313602 2.412304878
O -1.679542780 -10.522012711 3.719841480
N -3.372773409 -8.646107674 2.503523588
C -1.207024932 -8.205724716 4.186312675
P -5.105810642 -9.789581299 2.484525204
Cl 0.032257617 -5.551104069 1.982668281
N -0.659087420 -7.103986740 1.928262591
F -1.646170616 -5.298273087 2.052817583
P -3.648671865 -7.044945717 2.779925823
