33

C -3.298106909 -3.896199942 0.699992836
C -2.455307007 -3.209899902 1.770992756
O -1.708307028 -2.119099855 1.271292806
C -3.028007030 3.848299980 -1.696807146
C -3.222306967 3.928800106 -0.186607152
O -3.973006964 2.842400074 0.326392829
O 0.716793060 1.740399957 -0.466007173
C 0.836893082 0.565999985 -0.166407153
N -0.171107054 -0.229099989 0.287392855
C 2.137193203 -0.113199979 -0.275407165
C 3.299492836 0.480100006 -0.689107180
C 4.398192883 -0.399099976 -0.696607172
C 4.064692974 -1.652799964 -0.290007174
S 2.402893066 -1.786599994 0.110892847
Br -4.717338562 -10.466436386 3.720261812
N -0.896290779 -7.824858189 3.337709665
O -4.441170216 -9.538166046 1.566489697
Cl -5.508090019 -10.136618614 4.376819611
P -1.799724579 -6.962297440 1.098462820
P -3.833002329 -11.002598763 2.555824757
P -4.059431076 -13.252278328 3.137438297
Br -4.880334377 -11.647792816 5.712155819
N -0.225064769 -7.078777313 2.859752893
F -1.457226396 -9.756906509 3.517286777
C -4.891606331 -11.508437157 3.661501884
P -2.337398529 -12.283813477 4.598791122
N -2.734127045 -11.384232521 3.489701748
I -1.886463642 -10.682015419 4.842126846
P -4.698690891 -13.005186081 4.070349693
F -0.452859581 -7.479290009 1.735529065
O -1.646913528 -7.950993538 2.984725237
F -2.673124552 -7.118810177 2.595846891
N -2.710921526 -8.889404297 2.931546450
