33

C -3.298106909 -3.896199942 0.699992836
C -2.455307007 -3.209899902 1.770992756
O -1.708307028 -2.119099855 1.271292806
C -3.028007030 3.848299980 -1.696807146
C -3.222306967 3.928800106 -0.186607152
O -3.973006964 2.842400074 0.326392829
O 0.716793060 1.740399957 -0.466007173
C 0.836893082 0.565999985 -0.166407153
N -0.171107054 -0.229099989 0.287392855
C 2.137193203 -0.113199979 -0.275407165
C 3.299492836 0.480100006 -0.689107180
C 4.398192883 -0.399099976 -0.696607172
C 4.064692974 -1.652799964 -0.290007174
S 2.402893066 -1.786599994 0.110892847
O -1.695027828 -1.002474546 0.408447832
P 1.027426958 -2.891342640 0.444732279
O -1.043925762 -2.890724421 1.190204978
F -0.890772164 -2.161363363 1.194920301
P -0.139532968 -1.235697985 -0.967241466
S -2.513905287 -2.521518946 0.251876533
C -1.900455713 -2.729817152 1.897382975
N -2.379457951 -3.149896860 0.486333847
F 0.970308065 -1.462482572 0.742258132
S 0.783239007 -2.239979029 -0.878988564
N -3.141197205 -2.262971640 -0.006486073
S -0.893685579 -1.248841405 -1.093533635
I 0.160679534 -3.022864103 0.457868189
S -1.176263094 -2.953444242 0.152171731
Br -2.766301870 -1.958439231 2.466603041
C -0.755820394 -2.901191473 1.075185061
Cl -1.304793358 -1.942626119 2.293849230
I 0.118901074 -1.475277901 1.086197376
F -1.639447927 -1.560982108 0.509972334
