33

C -3.298106909 -3.896199942 0.699992836
C -2.455307007 -3.209899902 1.770992756
O -1.708307028 -2.119099855 1.271292806
C -3.028007030 3.848299980 -1.696807146
C -3.222306967 3.928800106 -0.186607152
O -3.973006964 2.842400074 0.326392829
O 0.716793060 1.740399957 -0.466007173
C 0.836893082 0.565999985 -0.166407153
N -0.171107054 -0.229099989 0.287392855
C 2.137193203 -0.113199979 -0.275407165
C 3.299492836 0.480100006 -0.689107180
C 4.398192883 -0.399099976 -0.696607172
C 4.064692974 -1.652799964 -0.290007174
S 2.402893066 -1.786599994 0.110892847
Br -4.624561787 -10.450602531 4.029174328
N -1.004356623 -7.792947769 3.123267651
F -4.116920948 -9.256120682 1.406130791
F -5.540470600 -9.662270546 4.114222527
C -1.586066008 -6.906482220 1.172115922
P -3.614537239 -11.134291649 1.570672870
P -3.906017542 -12.668630600 2.728207111
Br -4.940010071 -11.740133286 5.378268719
N -0.452986777 -6.736021519 2.766799212
C -1.799984694 -9.129775047 3.471170902
C -5.011280060 -11.317599297 3.569211960
C -2.143382072 -11.807996750 5.119433880
N -3.131812572 -11.340902328 4.023059368
Br -1.696767330 -10.261558533 4.807977200
P -4.618193626 -12.976645470 3.466745377
F -0.022088846 -7.243852615 1.746572256
P -1.721289635 -7.856888294 3.108822823
O -2.399010658 -6.635036469 2.309775591
N -3.537985802 -8.870541573 3.160284519
