33

C -3.298106909 -3.896199942 0.699992836
C -2.455307007 -3.209899902 1.770992756
O -1.708307028 -2.119099855 1.271292806
C -3.028007030 3.848299980 -1.696807146
C -3.222306967 3.928800106 -0.186607152
O -3.973006964 2.842400074 0.326392829
O 0.716793060 1.740399957 -0.466007173
C 0.836893082 0.565999985 -0.166407153
N -0.171107054 -0.229099989 0.287392855
C 2.137193203 -0.113199979 -0.275407165
C 3.299492836 0.480100006 -0.689107180
C 4.398192883 -0.399099976 -0.696607172
C 4.064692974 -1.652799964 -0.290007174
S 2.402893066 -1.786599994 0.110892847
Br -4.525045872 -9.817292213 4.042881966
S -1.163331389 -7.328647137 2.925318718
F -4.295032978 -9.075636864 1.023332477
F -5.460330009 -9.138058662 4.064531803
C -1.391212583 -6.718830109 0.859934688
N -3.651527882 -10.709411621 1.570469379
Cl -3.855158329 -12.360625267 2.079570055
N -4.772000790 -11.371055603 5.000804901
S -0.282875657 -6.535304070 2.932460785
C -2.159097910 -8.182683945 3.024656057
C -4.519251823 -10.551280022 3.275184155
O -2.110116243 -12.145045280 4.937077045
N -2.730319977 -10.922742844 3.462355137
Br -1.486577392 -10.102473259 4.685829163
O -4.412611008 -12.662729263 3.260408878
F -0.081397563 -7.294287682 1.868265629
P -1.423898101 -7.486085415 2.968465328
N -2.279051065 -6.360848904 2.328347683
C -3.588136673 -8.317929268 2.884392500
