33

C -3.298106909 -3.896199942 0.699992836
C -2.455307007 -3.209899902 1.770992756
O -1.708307028 -2.119099855 1.271292806
C -3.028007030 3.848299980 -1.696807146
C -3.222306967 3.928800106 -0.186607152
O -3.973006964 2.842400074 0.326392829
O 0.716793060 1.740399957 -0.466007173
C 0.836893082 0.565999985 -0.166407153
N -0.171107054 -0.229099989 0.287392855
C 2.137193203 -0.113199979 -0.275407165
C 3.299492836 0.480100006 -0.689107180
C 4.398192883 -0.399099976 -0.696607172
C 4.064692974 -1.652799964 -0.290007174
S 2.402893066 -1.786599994 0.110892847
C -4.436426640 -10.594362259 4.166832924
O -0.981044412 -7.959592819 3.865102053
I -5.145825386 -10.044951439 1.644467115
S -5.773469925 -10.769451141 4.363003731
C -1.629290700 -7.141538620 1.454193711
O -4.133167267 -11.699511528 2.101142168
P -3.902193785 -13.819171906 3.011928082
S -5.118644238 -12.204813004 5.905309677
N -0.459560037 -7.199303150 2.574947834
C -1.380661845 -10.028290749 3.721663475
F -4.503533363 -12.282159805 3.722867250
P -2.520649433 -12.407029152 4.908336639
C -3.213702440 -11.812189102 3.916905880
C -2.459329844 -10.673446655 5.047536373
S -4.863080978 -13.268933296 3.868965387
F -0.712691367 -8.171136856 2.296377897
F -1.686381698 -8.537738800 3.124416828
S -2.790148020 -7.707836151 2.516193151
C -3.030577898 -9.949536324 2.918277502
