33

C -3.298106909 -3.896199942 0.699992836
C -2.455307007 -3.209899902 1.770992756
O -1.708307028 -2.119099855 1.271292806
C -3.028007030 3.848299980 -1.696807146
C -3.222306967 3.928800106 -0.186607152
O -3.973006964 2.842400074 0.326392829
O 0.716793060 1.740399957 -0.466007173
C 0.836893082 0.565999985 -0.166407153
N -0.171107054 -0.229099989 0.287392855
C 2.137193203 -0.113199979 -0.275407165
C 3.299492836 0.480100006 -0.689107180
C 4.398192883 -0.399099976 -0.696607172
C 4.064692974 -1.652799964 -0.290007174
S 2.402893066 -1.786599994 0.110892847
C -4.405855656 -10.886350632 4.153052807
N -1.282181740 -8.026595116 3.879585266
O -5.173881054 -10.146432877 1.606752276
S -5.945636272 -10.888468742 4.542141914
S -1.647052646 -7.000782013 1.490311146
O -4.125298977 -11.616965294 2.158639431
O -4.000440121 -13.835735321 3.041484833
S -5.170928955 -12.337717056 5.669467449
N -0.614974320 -7.346443176 2.765439510
C -1.425222039 -10.319609642 3.670532942
F -4.493550301 -12.447478294 3.949858427
C -2.490651608 -12.423819542 4.601181984
C -3.170247316 -12.017385483 3.979879379
C -2.775655985 -10.824625015 5.114578724
S -4.705946922 -13.525133133 3.840974808
C -0.724524677 -8.552433014 2.056365967
C -1.810963988 -8.832794189 2.901826143
Cl -3.045703411 -7.697591782 2.489176989
C -3.214153290 -9.989192009 3.130052328
