33

C -3.298106909 -3.896199942 0.699992836
C -2.455307007 -3.209899902 1.770992756
O -1.708307028 -2.119099855 1.271292806
C -3.028007030 3.848299980 -1.696807146
C -3.222306967 3.928800106 -0.186607152
O -3.973006964 2.842400074 0.326392829
O 0.716793060 1.740399957 -0.466007173
C 0.836893082 0.565999985 -0.166407153
N -0.171107054 -0.229099989 0.287392855
C 2.137193203 -0.113199979 -0.275407165
C 3.299492836 0.480100006 -0.689107180
C 4.398192883 -0.399099976 -0.696607172
C 4.064692974 -1.652799964 -0.290007174
S 2.402893066 -1.786599994 0.110892847
P -2.529136181 -4.093553543 1.784070849
P 1.306912065 -3.737107515 1.798242211
Br -1.742435217 -4.142271519 -0.187530831
F -2.321461916 -4.945532799 1.082195759
Cl -1.456918716 -4.617008686 0.468084931
Cl -1.929970622 -5.517949581 1.541340232
Cl -0.839091480 -6.470523357 1.359521270
O -1.945690989 -4.763605118 3.852962971
F -0.867097914 -4.116546154 2.630898714
O -0.724091709 -3.499408722 1.582150102
S -0.883639455 -4.860247135 0.747959435
O -0.558373511 -6.300481319 1.276250362
N -3.167367458 -5.736673832 2.902433634
Br -1.254458547 -5.788484097 3.839493752
P -3.665656805 -6.677105904 3.000008345
O -0.096404925 -5.088585854 1.295499563
F -1.642650604 -4.372114182 1.849877596
Br -1.550152540 -2.625247955 3.254027367
N -1.257499218 -4.570496082 3.500118017
