33

C -3.298106909 -3.896199942 0.699992836
C -2.455307007 -3.209899902 1.770992756
O -1.708307028 -2.119099855 1.271292806
C -3.028007030 3.848299980 -1.696807146
C -3.222306967 3.928800106 -0.186607152
O -3.973006964 2.842400074 0.326392829
O 0.716793060 1.740399957 -0.466007173
C 0.836893082 0.565999985 -0.166407153
N -0.171107054 -0.229099989 0.287392855
C 2.137193203 -0.113199979 -0.275407165
C 3.299492836 0.480100006 -0.689107180
C 4.398192883 -0.399099976 -0.696607172
C 4.064692974 -1.652799964 -0.290007174
S 2.402893066 -1.786599994 0.110892847
Cl -4.576811790 -8.591968536 4.040216446
S -0.181262016 -5.905659199 2.519827127
F -3.875277042 -8.718820572 0.901846707
F -4.610779285 -7.525207043 3.471368074
Br -1.545820951 -6.519919872 0.898916304
N -3.483117580 -10.117304802 1.495865345
Cl -3.513098955 -10.484070778 1.845565200
N -3.152500153 -10.278564453 4.540851116
S -0.304190814 -5.854776859 3.390864372
C -1.350086451 -7.418688297 3.488526583
C -3.699981689 -9.065105438 2.454609871
C -2.346934795 -11.264927864 4.140376568
N -3.071938992 -9.600281715 2.754348040
Br -0.884682477 -8.929987907 4.156221390
P -5.000330925 -11.253355980 2.889525414
Cl -0.115289435 -6.616286278 2.126987219
P -1.222173810 -7.679583073 2.355113506
F -2.594507456 -5.699971199 2.084843397
P -3.433849335 -8.296165466 3.188076258
