33

C -3.298106909 -3.896199942 0.699992836
C -2.455307007 -3.209899902 1.770992756
O -1.708307028 -2.119099855 1.271292806
C -3.028007030 3.848299980 -1.696807146
C -3.222306967 3.928800106 -0.186607152
O -3.973006964 2.842400074 0.326392829
O 0.716793060 1.740399957 -0.466007173
C 0.836893082 0.565999985 -0.166407153
N -0.171107054 -0.229099989 0.287392855
C 2.137193203 -0.113199979 -0.275407165
C 3.299492836 0.480100006 -0.689107180
C 4.398192883 -0.399099976 -0.696607172
C 4.064692974 -1.652799964 -0.290007174
S 2.402893066 -1.786599994 0.110892847
Cl -4.238973141 -9.524716377 4.318567276
S -1.090738416 -6.897500992 2.792501926
F -4.350791931 -9.251225471 1.001904964
F -5.193284035 -8.834038734 4.158662319
C -1.653197050 -6.888871193 0.917266786
N -3.934576511 -10.351894379 1.252692461
Cl -4.064533234 -11.603631973 2.024596214
C -4.547599792 -10.833517075 4.587837219
S -0.351407051 -6.498930454 2.888248205
C -1.951091886 -8.049185753 2.879602194
C -3.868416786 -9.975593567 3.402040482
C -2.349567652 -11.776038170 4.595446110
N -2.513346434 -10.811973572 3.170005322
Br -1.187340140 -9.079648972 4.182790279
O -4.690096855 -12.512085915 3.456326723
Cl -0.161439791 -7.510125160 1.927268863
P -1.169837832 -7.558990955 2.962559700
F -2.791553020 -6.344407558 2.237525463
C -3.631077290 -8.167343140 2.743449450
