33

C -3.298106909 -3.896199942 0.699992836
C -2.455307007 -3.209899902 1.770992756
O -1.708307028 -2.119099855 1.271292806
C -3.028007030 3.848299980 -1.696807146
C -3.222306967 3.928800106 -0.186607152
O -3.973006964 2.842400074 0.326392829
O 0.716793060 1.740399957 -0.466007173
C 0.836893082 0.565999985 -0.166407153
N -0.171107054 -0.229099989 0.287392855
C 2.137193203 -0.113199979 -0.275407165
C 3.299492836 0.480100006 -0.689107180
C 4.398192883 -0.399099976 -0.696607172
C 4.064692974 -1.652799964 -0.290007174
S 2.402893066 -1.786599994 0.110892847
C -4.300257206 -10.954138756 3.996868134
C -1.249395847 -7.897971153 3.733977318
S -5.007585049 -10.125037193 1.554022193
C -5.818238735 -11.050457954 4.210537434
C -1.745511770 -7.143023491 1.288608670
C -4.375771999 -11.744462967 2.074497938
C -3.721789360 -13.892381668 3.205127954
S -5.191696644 -12.380797386 5.579759598
N -0.685459256 -7.394913673 2.831055164
C -1.776494980 -10.467318535 3.863460541
C -4.850533009 -12.614326477 4.001050949
C -2.768220425 -12.756604195 4.657117844
C -3.338910341 -12.008178711 3.980978966
C -3.056678295 -10.805772781 5.099532127
C -4.950984955 -13.727193832 4.109387398
C -0.907167852 -8.670042992 2.200286150
C -1.911998868 -9.144487381 3.077165365
C -3.042750359 -8.117522240 2.706828356
C -3.367848635 -10.171209335 3.027674437
