33

C -3.298106909 -3.896199942 0.699992836
C -2.455307007 -3.209899902 1.770992756
O -1.708307028 -2.119099855 1.271292806
C -3.028007030 3.848299980 -1.696807146
C -3.222306967 3.928800106 -0.186607152
O -3.973006964 2.842400074 0.326392829
O 0.716793060 1.740399957 -0.466007173
C 0.836893082 0.565999985 -0.166407153
N -0.171107054 -0.229099989 0.287392855
C 2.137193203 -0.113199979 -0.275407165
C 3.299492836 0.480100006 -0.689107180
C 4.398192883 -0.399099976 -0.696607172
C 4.064692974 -1.652799964 -0.290007174
S 2.402893066 -1.786599994 0.110892847
P -1.998918891 -1.511237264 -1.400277257
P 0.402699292 -3.307598352 1.649351239
C -1.495642781 -3.404748917 0.666139722
O 0.087506913 -2.758189440 0.256430298
O -0.108314678 -1.769472957 0.201867908
Cl -2.083646059 -3.367933512 0.037051417
I -0.747641087 -4.557697296 1.881082892
N -1.861872435 -2.440437794 0.506279111
F 1.029311657 -2.291529417 1.708705187
S -0.366048932 -2.255673885 -0.217920780
N -1.335164905 -2.176835775 -0.101927966
Br 0.008113101 -3.536246538 -0.191619396
S -0.433959842 -3.371841192 0.735395014
I -0.476060092 -4.330945969 1.346587896
Cl -1.754936337 -3.130853415 2.125754118
Br -0.307559818 -2.569428444 0.763653934
Br -1.401994586 -2.117109060 1.075219870
O 0.433601916 -1.969348192 0.904246271
N -2.041839123 -3.905880928 1.570262790
