33

C -3.298106909 -3.896199942 0.699992836
C -2.455307007 -3.209899902 1.770992756
O -1.708307028 -2.119099855 1.271292806
C -3.028007030 3.848299980 -1.696807146
C -3.222306967 3.928800106 -0.186607152
O -3.973006964 2.842400074 0.326392829
O 0.716793060 1.740399957 -0.466007173
C 0.836893082 0.565999985 -0.166407153
N -0.171107054 -0.229099989 0.287392855
C 2.137193203 -0.113199979 -0.275407165
C 3.299492836 0.480100006 -0.689107180
C 4.398192883 -0.399099976 -0.696607172
C 4.064692974 -1.652799964 -0.290007174
S 2.402893066 -1.786599994 0.110892847
C -4.375743866 -10.912122726 4.013870716
Br -1.124891520 -7.887189865 3.897308826
S -5.073688984 -10.014496803 1.607653737
Br -5.752337456 -10.943631172 4.315904140
C -1.675938368 -7.188663960 1.286087275
C -4.309127808 -11.614661217 2.034373522
C -3.914953709 -13.883589745 3.195559263
S -5.284331322 -12.357615471 5.443572521
N -0.544140458 -7.419923306 2.823918819
C -1.591682076 -10.231506348 3.844494104
C -4.869218826 -12.476124763 3.925019026
C -2.553407907 -12.603081703 4.832769871
C -3.315445423 -12.074169159 3.891322613
C -2.898290634 -10.700698853 5.068598747
C -4.735579491 -13.722948074 4.104617596
C -0.774024189 -8.664193153 2.092233658
C -1.790346384 -8.952565193 3.112597704
C -2.941841364 -7.984717369 2.627501249
C -3.344494104 -10.148481369 3.066110849
