33

C -3.298106909 -3.896199942 0.699992836
C -2.455307007 -3.209899902 1.770992756
O -1.708307028 -2.119099855 1.271292806
C -3.028007030 3.848299980 -1.696807146
C -3.222306967 3.928800106 -0.186607152
O -3.973006964 2.842400074 0.326392829
O 0.716793060 1.740399957 -0.466007173
C 0.836893082 0.565999985 -0.166407153
N -0.171107054 -0.229099989 0.287392855
C 2.137193203 -0.113199979 -0.275407165
C 3.299492836 0.480100006 -0.689107180
C 4.398192883 -0.399099976 -0.696607172
C 4.064692974 -1.652799964 -0.290007174
S 2.402893066 -1.786599994 0.110892847
P -3.421816111 -5.695097446 2.500130653
P 1.456108809 -4.239186287 2.270671129
F -2.543017387 -6.188759327 1.150357127
S -3.791327477 -5.697782516 2.192903757
Br -0.664606094 -4.506810188 0.044965707
Cl -2.600664377 -7.502663612 1.358436227
I -1.123685002 -7.709799290 1.129027367
N -2.731396198 -7.241554737 4.392068386
Cl -1.428408384 -4.550409794 3.255847216
C -1.711992025 -5.821253300 2.911745071
I -2.545647860 -5.982307434 1.906891346
O -1.367513537 -8.464062691 2.422203779
N -2.924838305 -7.330772877 1.671681285
C -1.336084843 -6.630267143 3.407242537
P -4.864297867 -7.100216389 2.414902210
C 0.216943800 -5.147570610 1.170370579
N -0.909477413 -5.568239689 1.344054937
Br -1.277962685 -4.199848652 1.082317829
P -3.795452118 -6.074462891 3.247183084
