33

C -3.298106909 -3.896199942 0.699992836
C -2.455307007 -3.209899902 1.770992756
O -1.708307028 -2.119099855 1.271292806
C -3.028007030 3.848299980 -1.696807146
C -3.222306967 3.928800106 -0.186607152
O -3.973006964 2.842400074 0.326392829
O 0.716793060 1.740399957 -0.466007173
C 0.836893082 0.565999985 -0.166407153
N -0.171107054 -0.229099989 0.287392855
C 2.137193203 -0.113199979 -0.275407165
C 3.299492836 0.480100006 -0.689107180
C 4.398192883 -0.399099976 -0.696607172
C 4.064692974 -1.652799964 -0.290007174
S 2.402893066 -1.786599994 0.110892847
N -2.977138758 1.030508876 -0.087876767
N -1.131585598 0.789711595 -0.399536878
F -0.399250329 0.958907783 1.441423774
Cl -1.664663434 0.630401969 0.874973774
P -0.427545220 -0.171270013 0.263549507
Cl -1.334538341 2.423377037 -1.059004426
Br 0.102956265 -0.398223996 1.159374118
F -0.235160485 0.295983583 2.659617901
O -2.497991323 -1.141513228 -0.622637033
N 0.399566889 -1.671135068 0.174241379
F -2.797047138 -0.028059982 0.715893924
O -2.385636568 -1.600496054 -1.193869948
P -1.231268883 -1.266508222 0.020837963
Cl 0.966306806 0.005979374 0.353413969
O -0.590916932 0.459891796 1.078557253
N -1.414417267 -1.363138676 1.195477605
C -2.091203928 0.131954700 0.488793969
S -1.161287785 2.268247128 1.874722362
I 0.000197321 -1.331235051 0.792363405
