33

C -3.298106909 -3.896199942 0.699992836
C -2.455307007 -3.209899902 1.770992756
O -1.708307028 -2.119099855 1.271292806
C -3.028007030 3.848299980 -1.696807146
C -3.222306967 3.928800106 -0.186607152
O -3.973006964 2.842400074 0.326392829
O 0.716793060 1.740399957 -0.466007173
C 0.836893082 0.565999985 -0.166407153
N -0.171107054 -0.229099989 0.287392855
C 2.137193203 -0.113199979 -0.275407165
C 3.299492836 0.480100006 -0.689107180
C 4.398192883 -0.399099976 -0.696607172
C 4.064692974 -1.652799964 -0.290007174
S 2.402893066 -1.786599994 0.110892847
C -12.490240097 3.277621508 -0.976980984
C -9.329246521 1.644844770 -0.578228056
C -3.044857740 0.371340394 1.117028117
C -5.267652035 1.947685838 0.062893018
C -4.279189110 1.965717912 -0.732463121
C -5.285274506 1.663692355 2.327145100
C -6.812838078 3.778845072 1.174371839
N -7.466828823 2.720280409 1.622220755
C -11.729185104 2.233835936 0.968231082
C -7.336695194 1.091362596 0.516514361
N -8.621457100 0.905345619 0.246006146
C -9.551120758 3.559423923 0.421530694
C -10.526047707 1.754135013 2.140412569
C -6.283188820 2.489655495 1.660912752
N -10.518276215 1.968741655 -0.816523552
C -10.719815254 1.599151134 0.649215877
C -3.317640066 1.180091500 1.880256414
C -3.982575417 1.637507439 2.671597242
C -2.485242605 -0.409272850 0.422787666
