33

C -3.298106909 -3.896199942 0.699992836
C -2.455307007 -3.209899902 1.770992756
O -1.708307028 -2.119099855 1.271292806
C -3.028007030 3.848299980 -1.696807146
C -3.222306967 3.928800106 -0.186607152
O -3.973006964 2.842400074 0.326392829
O 0.716793060 1.740399957 -0.466007173
C 0.836893082 0.565999985 -0.166407153
N -0.171107054 -0.229099989 0.287392855
C 2.137193203 -0.113199979 -0.275407165
C 3.299492836 0.480100006 -0.689107180
C 4.398192883 -0.399099976 -0.696607172
C 4.064692974 -1.652799964 -0.290007174
S 2.402893066 -1.786599994 0.110892847
Br -8.870805740 1.984092832 -0.671088934
C -4.409314632 1.008648276 0.298828810
Br -3.757136822 0.689964175 1.184971929
S -2.701511621 2.013936043 0.298003882
O -2.547276020 0.955925941 -0.420001537
P -4.326069355 2.007810831 0.516059756
N -4.073024750 1.290423870 0.772302449
S -3.569530725 1.935136199 1.813724160
I -7.520670891 0.997801661 1.244444132
N -5.395487785 -1.238762021 -0.354277849
Cl -5.773983955 1.078846574 0.814369738
S -7.317776680 0.512495875 -1.400628448
C -8.087026596 -0.367331833 2.391480207
I -3.752378702 1.280734777 -0.618213952
I -5.761128426 2.592032909 -0.152715787
F -6.895833969 1.056165457 0.443066776
C -2.402245760 1.097251177 2.379448652
I -1.644946694 1.909235239 1.859736443
P -2.565232754 1.474176168 0.290345371
