33

C -3.298106909 -3.896199942 0.699992836
C -2.455307007 -3.209899902 1.770992756
O -1.708307028 -2.119099855 1.271292806
C -3.028007030 3.848299980 -1.696807146
C -3.222306967 3.928800106 -0.186607152
O -3.973006964 2.842400074 0.326392829
O 0.716793060 1.740399957 -0.466007173
C 0.836893082 0.565999985 -0.166407153
N -0.171107054 -0.229099989 0.287392855
C 2.137193203 -0.113199979 -0.275407165
C 3.299492836 0.480100006 -0.689107180
C 4.398192883 -0.399099976 -0.696607172
C 4.064692974 -1.652799964 -0.290007174
S 2.402893066 -1.786599994 0.110892847
S -12.080038071 3.240690708 -0.745765090
O -8.762779236 1.317052007 -0.768555641
C -3.215980768 0.088467844 1.059909225
C -4.685862541 1.865871191 -0.119179904
N -4.023407936 1.734441161 -0.617802262
Cl -5.400770664 1.503847957 2.380233526
F -6.789117813 3.642977715 1.443777323
N -7.252778053 2.607791662 1.935534835
C -11.558813095 2.194124222 1.043073535
N -7.471881866 1.186510324 0.555130005
S -8.464973450 0.974965453 0.312536955
C -9.385382652 3.682329655 0.331681222
C -10.456360817 1.733139634 2.031179190
C -5.844775677 2.358611822 1.722261906
N -10.118575096 1.918995142 -0.806506395
C -10.766840935 1.710624456 0.766664147
C -3.189511299 1.434915900 1.726387620
F -3.811500072 1.977458715 2.245299816
C -2.943408012 -0.100669883 0.396012872
