33

C -3.298106909 -3.896199942 0.699992836
C -2.455307007 -3.209899902 1.770992756
O -1.708307028 -2.119099855 1.271292806
C -3.028007030 3.848299980 -1.696807146
C -3.222306967 3.928800106 -0.186607152
O -3.973006964 2.842400074 0.326392829
O 0.716793060 1.740399957 -0.466007173
C 0.836893082 0.565999985 -0.166407153
N -0.171107054 -0.229099989 0.287392855
C 2.137193203 -0.113199979 -0.275407165
C 3.299492836 0.480100006 -0.689107180
C 4.398192883 -0.399099976 -0.696607172
C 4.064692974 -1.652799964 -0.290007174
S 2.402893066 -1.786599994 0.110892847
F -11.696852684 3.216744423 -1.121092319
S -8.669816971 0.878962636 -0.645728886
C -3.455085516 0.005381972 1.196099758
I -4.207940102 2.008763552 -0.169136375
Br -3.840432405 1.864523888 -0.413945943
Cl -5.765944004 1.532181025 2.009464264
F -6.479159832 3.444909573 0.793367326
N -6.883968830 2.371585369 1.726758718
I -10.861475945 2.553331137 1.460170984
P -7.183075905 0.980529308 0.887233555
S -8.082830429 1.008969903 0.535872340
C -9.475461960 3.457627535 -0.256314874
C -10.389845848 1.610508680 2.064782381
Br -5.833576679 2.812879086 1.515263677
I -9.506369591 2.075356722 -0.950047255
S -10.359496117 1.438495755 0.759799838
O -3.222067356 1.350624919 1.996887803
P -3.620422840 2.156036615 1.744378924
P -3.204897881 0.072804533 0.186179906
