33

C -3.298106909 -3.896199942 0.699992836
C -2.455307007 -3.209899902 1.770992756
O -1.708307028 -2.119099855 1.271292806
C -3.028007030 3.848299980 -1.696807146
C -3.222306967 3.928800106 -0.186607152
O -3.973006964 2.842400074 0.326392829
O 0.716793060 1.740399957 -0.466007173
C 0.836893082 0.565999985 -0.166407153
N -0.171107054 -0.229099989 0.287392855
C 2.137193203 -0.113199979 -0.275407165
C 3.299492836 0.480100006 -0.689107180
C 4.398192883 -0.399099976 -0.696607172
C 4.064692974 -1.652799964 -0.290007174
S 2.402893066 -1.786599994 0.110892847
C -11.806064606 2.897145271 -0.931698203
S -8.305859566 1.127209425 -0.534541011
C -3.970426321 0.257424682 1.309789062
I -3.730126381 2.121776104 -0.045002732
Br -3.904785872 1.778879762 -0.596595526
Cl -5.827086449 1.088136554 1.800655127
F -6.288737297 3.394039631 0.632678032
N -6.658760548 2.532769918 1.577516794
C -10.477413177 2.134498119 0.920484066
N -6.486831188 0.682680190 1.318855047
S -7.961042881 0.551792622 0.123252317
Cl -9.198131561 2.953049660 -0.566140771
Br -10.292614937 1.392318964 2.228311777
Br -5.446541309 3.278458357 1.458690643
I -9.272602081 2.352376699 -0.999776244
S -10.416114807 1.457251787 0.706179500
F -3.494709253 1.186192751 2.566308022
N -3.150003672 2.094429255 1.665838122
S -2.739975691 0.154450193 0.542522848
