33

C -3.298106909 -3.896199942 0.699992836
C -2.455307007 -3.209899902 1.770992756
O -1.708307028 -2.119099855 1.271292806
C -3.028007030 3.848299980 -1.696807146
C -3.222306967 3.928800106 -0.186607152
O -3.973006964 2.842400074 0.326392829
O 0.716793060 1.740399957 -0.466007173
C 0.836893082 0.565999985 -0.166407153
N -0.171107054 -0.229099989 0.287392855
C 2.137193203 -0.113199979 -0.275407165
C 3.299492836 0.480100006 -0.689107180
C 4.398192883 -0.399099976 -0.696607172
C 4.064692974 -1.652799964 -0.290007174
S 2.402893066 -1.786599994 0.110892847
C -10.126173019 2.357081175 -0.839069188
C -5.633055687 0.567331314 -0.469543397
Br -4.021558285 -0.099775448 1.422070742
S -3.162196159 1.986427069 -0.375283182
O -3.164591074 1.173731327 -0.829924524
P -4.898296833 1.868336082 0.964959681
Br -5.183224678 1.774645567 0.749752700
O -4.964798450 2.947750092 1.966832876
I -8.991405487 1.841238618 1.112598538
P -6.008248806 -1.484660864 -0.177627712
Cl -7.192140102 0.730811834 1.481557012
S -7.449695587 1.102889061 -1.348158836
C -8.921928406 -0.257631928 2.386872292
C -4.448756218 2.355389357 -0.550547481
N -6.337209702 2.608603001 -0.923456490
F -7.929668427 1.096469641 0.090947777
C -2.886012793 0.910238862 3.584563017
I -2.387344122 1.968919158 2.251250505
I -3.271789074 0.968870282 0.959729731
