33

C -3.298106909 -3.896199942 0.699992836
C -2.455307007 -3.209899902 1.770992756
O -1.708307028 -2.119099855 1.271292806
C -3.028007030 3.848299980 -1.696807146
C -3.222306967 3.928800106 -0.186607152
O -3.973006964 2.842400074 0.326392829
O 0.716793060 1.740399957 -0.466007173
C 0.836893082 0.565999985 -0.166407153
N -0.171107054 -0.229099989 0.287392855
C 2.137193203 -0.113199979 -0.275407165
C 3.299492836 0.480100006 -0.689107180
C 4.398192883 -0.399099976 -0.696607172
C 4.064692974 -1.652799964 -0.290007174
S 2.402893066 -1.786599994 0.110892847
C -11.151524544 2.863097906 -1.301033735
O -7.789874077 1.155560613 -0.769819558
Br -4.184745789 -0.105606839 1.142442465
S -4.036128044 2.175330162 -0.818348885
I -3.649194479 1.803681612 -0.585950315
P -5.383793354 1.026882052 1.702840924
F -5.913885593 2.699418545 1.334557652
I -6.419254303 2.962557554 2.218004704
F -10.231854439 2.147315979 1.101625085
C -6.074039936 0.424309731 1.201622963
O -7.596294403 0.931333065 0.370355874
O -8.362265587 3.131215572 -1.024605870
C -9.744069099 1.095563889 1.997557163
C -5.395196438 3.250902891 0.669586062
I -8.682082176 2.474766254 -0.746619463
F -9.167181969 0.620225430 0.601592779
P -3.373391390 1.516524911 3.338051081
N -2.806584835 2.027223587 1.547143936
S -2.519896746 0.640409589 0.263041437
