33

C -3.298106909 -3.896199942 0.699992836
C -2.455307007 -3.209899902 1.770992756
O -1.708307028 -2.119099855 1.271292806
C -3.028007030 3.848299980 -1.696807146
C -3.222306967 3.928800106 -0.186607152
O -3.973006964 2.842400074 0.326392829
O 0.716793060 1.740399957 -0.466007173
C 0.836893082 0.565999985 -0.166407153
N -0.171107054 -0.229099989 0.287392855
C 2.137193203 -0.113199979 -0.275407165
C 3.299492836 0.480100006 -0.689107180
C 4.398192883 -0.399099976 -0.696607172
C 4.064692974 -1.652799964 -0.290007174
S 2.402893066 -1.786599994 0.110892847
C -6.514578819 2.081228495 -0.401299834
C -2.916605473 0.338866532 0.519183159
F -3.060601950 0.976235449 2.829461575
S -2.237306118 1.618670106 0.920453072
C -1.471355915 -0.217185229 1.289995432
Br -2.346820116 1.932586908 0.378715038
O -3.193585873 2.044735432 0.075190134
O -1.734339118 0.826414287 1.848783374
O -5.543240070 0.340173393 2.008589983
F -3.706569195 -0.679276645 -0.842876136
C -4.533198357 0.903989434 0.697395921
S -5.783938408 -0.329102486 -0.651120901
N -5.519068241 -0.167915016 0.830955207
Br -2.307176113 0.446852595 -1.590523958
F -3.405889034 1.143300772 0.055999283
S -5.956451416 2.159621000 0.059002399
C -2.668017864 1.600373745 1.147521853
I -1.136337042 1.654909253 1.832968473
O -1.808219314 0.813740551 -0.503236651
