33

C -3.298106909 -3.896199942 0.699992836
C -2.455307007 -3.209899902 1.770992756
O -1.708307028 -2.119099855 1.271292806
C -3.028007030 3.848299980 -1.696807146
C -3.222306967 3.928800106 -0.186607152
O -3.973006964 2.842400074 0.326392829
O 0.716793060 1.740399957 -0.466007173
C 0.836893082 0.565999985 -0.166407153
N -0.171107054 -0.229099989 0.287392855
C 2.137193203 -0.113199979 -0.275407165
C 3.299492836 0.480100006 -0.689107180
C 4.398192883 -0.399099976 -0.696607172
C 4.064692974 -1.652799964 -0.290007174
S 2.402893066 -1.786599994 0.110892847
Br -4.760753155 1.241314411 -1.277499676
N -0.695874095 3.721793175 0.337847084
F -1.727792740 2.626607895 1.722347975
O -0.771940053 1.944124937 0.109471194
S -1.393739223 -0.579766750 -0.122025102
F -2.035317183 0.725628972 -0.288320184
S -1.664275289 1.649115920 0.022356018
F -1.410131574 -0.141317844 3.336918592
O -2.404946089 -0.815501094 -0.134986088
Br -1.398731589 -0.908217549 0.492706478
I -2.531715155 0.334845901 1.006387830
O -3.986507177 -0.394456714 -1.479350448
F -2.827596903 -0.607165337 0.899489582
Br -1.182491422 -0.377963543 -1.858618379
I -2.265730858 -1.831499696 0.680555880
C -2.897659063 -0.676257133 1.131602049
I -2.870297432 0.438606381 0.804538012
F -0.886203051 2.585276842 1.923626065
O -0.023607157 -0.524403811 1.325310469
