33

C -3.298106909 -3.896199942 0.699992836
C -2.455307007 -3.209899902 1.770992756
O -1.708307028 -2.119099855 1.271292806
C -3.028007030 3.848299980 -1.696807146
C -3.222306967 3.928800106 -0.186607152
O -3.973006964 2.842400074 0.326392829
O 0.716793060 1.740399957 -0.466007173
C 0.836893082 0.565999985 -0.166407153
N -0.171107054 -0.229099989 0.287392855
C 2.137193203 -0.113199979 -0.275407165
C 3.299492836 0.480100006 -0.689107180
C 4.398192883 -0.399099976 -0.696607172
C 4.064692974 -1.652799964 -0.290007174
S 2.402893066 -1.786599994 0.110892847
C -11.835144043 3.151445627 -1.190185070
Cl -8.637056351 0.919790506 -0.712522566
Br -3.330888510 0.019981571 1.180245638
I -4.245723724 1.862751365 -0.210169643
Br -3.929459810 1.839023232 -0.422169566
Cl -5.725322247 1.528305888 1.987355590
C -6.447583675 3.438012362 0.910671055
N -6.922009468 2.418305874 1.779041529
Br -10.826150894 2.543077469 1.385574937
P -7.202504158 0.851309299 0.880272388
S -8.022958755 0.930860102 0.461067617
C -9.529667854 3.529719830 -0.115752697
C -10.387850761 1.674649596 1.843661547
Br -5.874260902 2.740524292 1.652071476
I -9.565131187 2.062752962 -0.923114419
S -10.433503151 1.426394105 0.879579723
F -3.339232445 1.483411193 1.782710552
P -3.689021111 2.159022808 1.782837987
P -3.235879660 0.026950423 0.203693390
