33

C -3.298106909 -3.896199942 0.699992836
C -2.455307007 -3.209899902 1.770992756
O -1.708307028 -2.119099855 1.271292806
C -3.028007030 3.848299980 -1.696807146
C -3.222306967 3.928800106 -0.186607152
O -3.973006964 2.842400074 0.326392829
O 0.716793060 1.740399957 -0.466007173
C 0.836893082 0.565999985 -0.166407153
N -0.171107054 -0.229099989 0.287392855
C 2.137193203 -0.113199979 -0.275407165
C 3.299492836 0.480100006 -0.689107180
C 4.398192883 -0.399099976 -0.696607172
C 4.064692974 -1.652799964 -0.290007174
S 2.402893066 -1.786599994 0.110892847
C -12.501270294 3.278361320 -1.006057858
C -9.329377174 1.590397596 -0.630600631
C -3.036046028 0.348129034 1.118414879
C -5.267394066 1.906004310 0.014158192
C -4.306568623 1.923215389 -0.703027248
C -5.301826477 1.658854365 2.347370386
C -6.866686821 3.770762682 1.196216464
N -7.435003757 2.697323561 1.638460159
C -11.681761742 2.184080362 0.970855057
C -7.312565804 1.012044668 0.545821667
N -8.574852943 0.933913887 0.232119218
C -9.535257339 3.573572159 0.464976788
C -10.483554840 1.752266884 2.091854811
C -6.335600376 2.469801426 1.696557522
N -10.499341965 1.916406393 -0.866838992
C -10.742283821 1.648169398 0.721998036
C -3.287419796 1.199981570 1.854804754
C -3.944126368 1.667150259 2.587290049
C -2.544292450 -0.366957396 0.483810604
