33

C -3.298106909 -3.896199942 0.699992836
C -2.455307007 -3.209899902 1.770992756
O -1.708307028 -2.119099855 1.271292806
C -3.028007030 3.848299980 -1.696807146
C -3.222306967 3.928800106 -0.186607152
O -3.973006964 2.842400074 0.326392829
O 0.716793060 1.740399957 -0.466007173
C 0.836893082 0.565999985 -0.166407153
N -0.171107054 -0.229099989 0.287392855
C 2.137193203 -0.113199979 -0.275407165
C 3.299492836 0.480100006 -0.689107180
C 4.398192883 -0.399099976 -0.696607172
C 4.064692974 -1.652799964 -0.290007174
S 2.402893066 -1.786599994 0.110892847
C -10.739337921 2.557058811 -0.926055551
C -6.999854088 0.558262289 -0.357855082
Br -4.606715202 -0.239675358 1.526522398
S -3.910378695 1.777740121 -0.875344336
O -4.086836815 0.851219356 -0.979680896
P -4.818551540 1.563815475 0.829908013
F -5.321798325 1.163043737 0.998087168
P -5.034946442 3.828893900 2.180038452
C -9.227072716 2.168084145 1.207395315
I -5.552429199 -0.426117331 0.118832521
Cl -7.204265118 1.006377697 0.673638701
O -7.884356976 2.194932461 -1.342646360
C -8.936761856 0.193981707 2.220180988
C -4.554644108 2.639156580 0.424673438
N -7.869077206 2.293207407 -0.700107217
F -8.335925102 1.107243419 0.257361442
C -3.053261757 1.423509359 3.913279295
N -2.409439087 1.954995155 1.417858481
I -3.364270210 0.631764650 0.518274963
