33

C -3.298106909 -3.896199942 0.699992836
C -2.455307007 -3.209899902 1.770992756
O -1.708307028 -2.119099855 1.271292806
C -3.028007030 3.848299980 -1.696807146
C -3.222306967 3.928800106 -0.186607152
O -3.973006964 2.842400074 0.326392829
O 0.716793060 1.740399957 -0.466007173
C 0.836893082 0.565999985 -0.166407153
N -0.171107054 -0.229099989 0.287392855
C 2.137193203 -0.113199979 -0.275407165
C 3.299492836 0.480100006 -0.689107180
C 4.398192883 -0.399099976 -0.696607172
C 4.064692974 -1.652799964 -0.290007174
S 2.402893066 -1.786599994 0.110892847
C -10.675666809 2.810153008 -0.868549585
O -6.878342628 0.673372626 -0.335157633
Br -4.518157959 -0.231178343 1.487873793
S -3.708205700 1.882641792 -0.622169733
N -4.199516773 1.110501885 -0.746590853
P -4.568294525 1.551107526 1.076520562
F -5.054320812 1.261810303 0.821542621
P -5.085649014 3.852612734 2.180107117
C -8.997928619 2.070611000 1.283973336
I -5.509470463 -0.499612570 -0.019002909
F -7.003374577 0.775137424 0.851477027
S -7.737002850 1.845028877 -1.224196911
C -8.886471748 -0.044645883 2.368791819
C -4.562066078 2.805616379 0.496570200
N -7.674066067 2.509171247 -0.783383131
Cl -7.910871029 1.360866070 0.487110734
C -3.195613861 1.186626792 4.019131660
N -2.176928282 2.134306908 1.473272443
I -3.413691521 0.581940413 0.545566082
