33

C -3.298106909 -3.896199942 0.699992836
C -2.455307007 -3.209899902 1.770992756
O -1.708307028 -2.119099855 1.271292806
C -3.028007030 3.848299980 -1.696807146
C -3.222306967 3.928800106 -0.186607152
O -3.973006964 2.842400074 0.326392829
O 0.716793060 1.740399957 -0.466007173
C 0.836893082 0.565999985 -0.166407153
N -0.171107054 -0.229099989 0.287392855
C 2.137193203 -0.113199979 -0.275407165
C 3.299492836 0.480100006 -0.689107180
C 4.398192883 -0.399099976 -0.696607172
C 4.064692974 -1.652799964 -0.290007174
S 2.402893066 -1.786599994 0.110892847
C -11.520885468 3.083115578 -1.348194361
O -7.705657959 1.255530953 -0.861011684
Br -3.819706678 0.399876833 0.876647294
I -3.792616129 2.452644587 -0.731345832
N -3.655121326 2.058131456 -0.473192930
F -5.442956924 1.314977646 1.639020085
F -6.109916210 2.794958353 0.909664869
I -6.445873260 2.893932104 1.784935594
F -10.434764862 2.309653044 0.849378049
C -6.142620564 0.461352289 1.180948377
Cl -7.717659950 0.698633611 0.417240262
O -8.622358322 3.129069090 -1.081186771
C -9.721202850 1.235957861 2.416262627
Br -5.422844410 2.887858391 0.810719490
I -9.032231331 2.507765770 -1.153308272
F -9.385008812 0.634178936 0.929115593
O -3.367844105 1.191691995 3.191562653
P -2.838067055 2.038158178 1.560652971
S -2.300916195 0.408471584 0.421395779
