33

C -3.298106909 -3.896199942 0.699992836
C -2.455307007 -3.209899902 1.770992756
O -1.708307028 -2.119099855 1.271292806
C -3.028007030 3.848299980 -1.696807146
C -3.222306967 3.928800106 -0.186607152
O -3.973006964 2.842400074 0.326392829
O 0.716793060 1.740399957 -0.466007173
C 0.836893082 0.565999985 -0.166407153
N -0.171107054 -0.229099989 0.287392855
C 2.137193203 -0.113199979 -0.275407165
C 3.299492836 0.480100006 -0.689107180
C 4.398192883 -0.399099976 -0.696607172
C 4.064692974 -1.652799964 -0.290007174
S 2.402893066 -1.786599994 0.110892847
Br -9.579033852 1.737925768 -0.755525470
C -5.727542400 0.383289576 0.311178029
Br -3.714653492 0.227728218 1.271087646
S -3.439010143 1.631264448 0.006482922
I -2.815090418 1.158375978 -0.760381639
P -4.377842903 2.066220284 0.420959294
Br -4.424068451 1.448142648 0.809194148
O -4.432894707 2.811734676 2.169479370
I -8.101556778 2.224877119 1.566413045
P -5.991264343 -1.107765436 -0.263611704
Cl -6.611713409 1.150804043 1.226035357
S -7.191678524 0.949335933 -1.323973656
C -8.400588036 -0.544363320 2.653876066
C -3.852074623 1.630399346 -0.695704222
N -6.507718086 2.987161160 -0.159794196
F -7.343818188 1.020749450 -0.303987086
C -2.605807066 1.144039750 2.632531404
I -2.232095242 1.870785356 2.404175043
I -2.777137041 0.882326901 0.585885346
