33

C -3.298106909 -3.896199942 0.699992836
C -2.455307007 -3.209899902 1.770992756
O -1.708307028 -2.119099855 1.271292806
C -3.028007030 3.848299980 -1.696807146
C -3.222306967 3.928800106 -0.186607152
O -3.973006964 2.842400074 0.326392829
O 0.716793060 1.740399957 -0.466007173
C 0.836893082 0.565999985 -0.166407153
N -0.171107054 -0.229099989 0.287392855
C 2.137193203 -0.113199979 -0.275407165
C 3.299492836 0.480100006 -0.689107180
C 4.398192883 -0.399099976 -0.696607172
C 4.064692974 -1.652799964 -0.290007174
S 2.402893066 -1.786599994 0.110892847
C -10.867870331 3.069183826 -1.535152555
O -7.569218159 0.833348334 -0.918107629
Br -4.292889595 -0.087565109 0.996363938
S -4.187006474 2.126670837 -0.791160107
N -3.799731255 1.650550008 -0.465383440
P -5.425716877 1.397852421 1.596629143
F -5.612888336 2.123200178 1.254044771
I -6.009942055 3.092683792 1.988995075
F -10.123477936 2.118947029 0.847678185
C -5.973470211 0.213772237 0.980444670
S -7.569929123 1.009311438 0.511389673
O -8.511271477 2.826426268 -0.917275786
Br -9.487105370 0.951563716 1.989926577
Br -5.141315937 3.341182232 0.504712641
I -8.520587921 2.509390831 -0.665581405
Cl -9.312610626 0.701514006 0.327002585
P -3.102844000 1.392156005 3.202843189
N -2.739984035 2.407088995 1.236974478
S -2.312213898 0.563481569 0.421862811
