33

C -3.298106909 -3.896199942 0.699992836
C -2.455307007 -3.209899902 1.770992756
O -1.708307028 -2.119099855 1.271292806
C -3.028007030 3.848299980 -1.696807146
C -3.222306967 3.928800106 -0.186607152
O -3.973006964 2.842400074 0.326392829
O 0.716793060 1.740399957 -0.466007173
C 0.836893082 0.565999985 -0.166407153
N -0.171107054 -0.229099989 0.287392855
C 2.137193203 -0.113199979 -0.275407165
C 3.299492836 0.480100006 -0.689107180
C 4.398192883 -0.399099976 -0.696607172
C 4.064692974 -1.652799964 -0.290007174
S 2.402893066 -1.786599994 0.110892847
Br -4.594151497 1.417392969 -1.533134699
N -0.640613258 2.286191463 1.014806271
F -2.334678173 2.232029200 2.068418503
O -0.802384257 1.862889051 0.223648697
S -1.382484555 -0.007615596 -0.117109165
F -2.127994299 0.726994157 -0.312747598
S -1.687947750 0.974371672 0.355099857
S -0.988315463 -0.065365158 2.890804052
O -2.175804138 0.098083809 0.005374901
I -0.941412807 -1.135735393 0.280167699
I -2.420537472 0.680177331 1.090216637
O -4.097957611 -0.874012470 -1.364038944
F -2.339884758 -0.305923164 1.296756268
C -1.426569104 0.377875209 -0.915722251
I -2.485051870 -1.208630919 1.018756270
N -3.835609436 -0.417220831 0.731450558
I -2.667995930 0.408330947 0.490285039
F -0.460044771 2.062129498 1.878053784
O -0.533238173 0.028101820 0.733250022
