33

C -3.298106909 -3.896199942 0.699992836
C -2.455307007 -3.209899902 1.770992756
O -1.708307028 -2.119099855 1.271292806
C -3.028007030 3.848299980 -1.696807146
C -3.222306967 3.928800106 -0.186607152
O -3.973006964 2.842400074 0.326392829
O 0.716793060 1.740399957 -0.466007173
C 0.836893082 0.565999985 -0.166407153
N -0.171107054 -0.229099989 0.287392855
C 2.137193203 -0.113199979 -0.275407165
C 3.299492836 0.480100006 -0.689107180
C 4.398192883 -0.399099976 -0.696607172
C 4.064692974 -1.652799964 -0.290007174
S 2.402893066 -1.786599994 0.110892847
Br -12.204381943 3.324069500 -0.589422166
O -8.927070618 1.489073277 -0.697766304
C -3.160746813 0.274315953 1.194991469
C -4.746223927 1.900137186 -0.125859141
C -4.191049099 1.717097759 -0.678566873
S -5.518778324 1.619753599 2.182135820
F -6.792400360 3.710686922 1.444540501
N -7.317559242 2.706465006 1.788819551
C -11.687677383 2.054154873 1.034580469
N -7.545172215 1.056110740 0.467611194
I -8.452936172 0.890010834 0.358827204
F -9.460140228 3.679220915 0.362225413
C -10.352528572 1.784626126 2.089890242
C -6.000450611 2.410306692 1.875109911
N -10.277235985 1.964910746 -0.957894623
S -10.765692711 1.659837604 0.656155944
C -3.254149437 1.415616632 1.740090966
P -3.815900564 1.913998365 2.356728077
C -2.992730141 -0.114327133 0.380424738
