33

C -3.298106909 -3.896199942 0.699992836
C -2.455307007 -3.209899902 1.770992756
O -1.708307028 -2.119099855 1.271292806
C -3.028007030 3.848299980 -1.696807146
C -3.222306967 3.928800106 -0.186607152
O -3.973006964 2.842400074 0.326392829
O 0.716793060 1.740399957 -0.466007173
C 0.836893082 0.565999985 -0.166407153
N -0.171107054 -0.229099989 0.287392855
C 2.137193203 -0.113199979 -0.275407165
C 3.299492836 0.480100006 -0.689107180
C 4.398192883 -0.399099976 -0.696607172
C 4.064692974 -1.652799964 -0.290007174
S 2.402893066 -1.786599994 0.110892847
C -9.340681076 1.250722051 -0.985511303
C -5.186852932 0.835936904 0.343979239
Br -3.718003035 0.158878356 1.102246642
S -2.863509178 1.999498963 0.510602176
O -2.914343596 0.896923721 -0.402941108
P -4.510844707 2.032943726 0.464633226
Br -4.087866783 1.240801811 0.742570698
Br -3.585332870 2.269306660 2.379023552
I -7.737104893 1.603346348 1.407490492
N -5.707060337 -1.199285984 -0.578419864
Cl -6.119995117 0.968865633 0.619865537
S -7.563254833 0.846673489 -1.399220824
C -8.562841415 -0.606966019 2.710954189
C -4.381134510 1.533790588 -0.392507195
N -6.095312595 2.478518248 0.065841801
I -7.072342873 1.003259301 0.343498409
C -2.022649527 0.855483830 2.615379810
I -2.026438951 1.948059440 2.171202183
I -2.764002323 1.417439818 0.513948798
