33

C -3.298106909 -3.896199942 0.699992836
C -2.455307007 -3.209899902 1.770992756
O -1.708307028 -2.119099855 1.271292806
C -3.028007030 3.848299980 -1.696807146
C -3.222306967 3.928800106 -0.186607152
O -3.973006964 2.842400074 0.326392829
O 0.716793060 1.740399957 -0.466007173
C 0.836893082 0.565999985 -0.166407153
N -0.171107054 -0.229099989 0.287392855
C 2.137193203 -0.113199979 -0.275407165
C 3.299492836 0.480100006 -0.689107180
C 4.398192883 -0.399099976 -0.696607172
C 4.064692974 -1.652799964 -0.290007174
S 2.402893066 -1.786599994 0.110892847
C -10.650952339 2.798608065 -1.151345849
C -6.764234543 0.646065176 -0.267606735
Br -4.261090755 -0.151015326 1.590972662
S -3.674755573 1.633093715 -0.663461030
N -3.914949656 1.324851871 -0.858380139
P -4.781310558 1.509888411 1.140789986
Cl -5.019690514 1.274135709 0.855394006
P -5.072837830 3.396216631 2.079865932
F -9.193383217 2.191129684 1.151956677
I -5.571760654 -0.647140443 -0.164085999
Cl -7.031975746 0.828800917 0.842135608
S -7.497723579 1.837740302 -1.227858901
C -8.925784111 -0.172170848 2.294218779
C -4.632693291 2.777986288 0.397851318
N -7.469317436 2.778117180 -0.807955682
Cl -7.859345436 1.099346995 0.216290131
C -3.138393879 1.262584448 4.217173100
I -2.055246115 2.132292986 1.561075687
I -3.396503687 0.722366273 0.780207634
