33

C -3.298106909 -3.896199942 0.699992836
C -2.455307007 -3.209899902 1.770992756
O -1.708307028 -2.119099855 1.271292806
C -3.028007030 3.848299980 -1.696807146
C -3.222306967 3.928800106 -0.186607152
O -3.973006964 2.842400074 0.326392829
O 0.716793060 1.740399957 -0.466007173
C 0.836893082 0.565999985 -0.166407153
N -0.171107054 -0.229099989 0.287392855
C 2.137193203 -0.113199979 -0.275407165
C 3.299492836 0.480100006 -0.689107180
C 4.398192883 -0.399099976 -0.696607172
C 4.064692974 -1.652799964 -0.290007174
S 2.402893066 -1.786599994 0.110892847
Br -4.852029800 1.700551033 -1.208437204
N -1.011270285 1.250192761 1.321722507
F -2.728703260 2.321536064 1.823628187
O -0.588961244 2.217836857 0.471002519
S -1.133371353 -0.083629772 0.053668797
F -2.129924059 0.929224789 -0.112937659
S -1.955244303 1.374405861 0.049383186
S -1.330258489 -0.074077830 3.140576363
O -3.114472151 0.447462559 0.577937424
O -1.784966946 -0.879142523 0.163315922
I -2.780008554 0.540491700 0.929378808
C -4.088860989 -0.886229575 -1.758347034
F -2.856179476 -0.384892106 1.379041672
F -1.975235462 -0.368698597 -1.193841815
I -2.261473656 -0.485475391 0.465614140
N -4.437385559 -0.998249412 1.109848261
I -2.742233992 0.189939022 0.631473660
I -0.775214434 1.663962245 1.986254930
O -0.558167279 0.105200604 0.171776846
