33

C -3.298106909 -3.896199942 0.699992836
C -2.455307007 -3.209899902 1.770992756
O -1.708307028 -2.119099855 1.271292806
C -3.028007030 3.848299980 -1.696807146
C -3.222306967 3.928800106 -0.186607152
O -3.973006964 2.842400074 0.326392829
O 0.716793060 1.740399957 -0.466007173
C 0.836893082 0.565999985 -0.166407153
N -0.171107054 -0.229099989 0.287392855
C 2.137193203 -0.113199979 -0.275407165
C 3.299492836 0.480100006 -0.689107180
C 4.398192883 -0.399099976 -0.696607172
C 4.064692974 -1.652799964 -0.290007174
S 2.402893066 -1.786599994 0.110892847
Br -9.030482292 1.277917027 -0.683317125
C -5.363730431 0.696628571 0.353657961
Br -3.641131163 0.182604805 1.128633618
S -3.195363283 1.900852680 0.242243409
O -2.955908775 1.049368382 -0.770814061
P -4.494261265 1.995331764 0.430618405
S -4.269341946 1.539670229 0.744461060
O -3.943039417 2.604016781 2.425742626
I -7.861629963 1.884318948 1.193527341
I -5.937624931 -1.333438516 -0.526849806
Cl -6.197222233 1.235995293 0.699900329
S -7.403040886 1.016076207 -1.463187099
C -8.682924271 -0.503510475 2.600420952
C -3.822926283 1.320095062 -0.743406951
N -6.400137901 2.676594973 -0.205374956
F -7.317079067 1.309392691 0.288497031
C -2.170247078 1.084546566 2.607610464
I -2.164662600 1.814793706 2.278547049
I -2.732281208 1.512705207 0.353151619
