33

C -3.298106909 -3.896199942 0.699992836
C -2.455307007 -3.209899902 1.770992756
O -1.708307028 -2.119099855 1.271292806
C -3.028007030 3.848299980 -1.696807146
C -3.222306967 3.928800106 -0.186607152
O -3.973006964 2.842400074 0.326392829
O 0.716793060 1.740399957 -0.466007173
C 0.836893082 0.565999985 -0.166407153
N -0.171107054 -0.229099989 0.287392855
C 2.137193203 -0.113199979 -0.275407165
C 3.299492836 0.480100006 -0.689107180
C 4.398192883 -0.399099976 -0.696607172
C 4.064692974 -1.652799964 -0.290007174
S 2.402893066 -1.786599994 0.110892847
C -11.937917709 3.114386082 -0.885188997
S -8.765859604 1.218166113 -0.776650608
Br -3.283997536 -0.142107859 1.085325480
I -4.386051178 1.756532192 -0.296309412
Br -3.956980467 1.822094560 -0.481333166
Cl -5.527855873 1.517593145 2.256982803
C -6.394186020 3.680144310 1.296931863
N -7.129210949 2.761205912 1.741972208
C -11.362571716 2.263422966 1.221663833
N -7.382396698 1.189002633 0.957266271
Cl -8.067214012 1.052726269 0.472132146
C -9.681245804 3.855284452 0.150479600
C -10.465651512 1.731512547 1.730073094
C -6.063271999 2.626523018 1.602652311
N -9.820091248 1.832498789 -0.604070544
S -10.569352150 1.660604119 0.798080802
C -3.176931143 1.712154388 1.749535203
F -3.945046663 2.062239170 1.926023006
P -2.800861120 0.151471466 0.311039358
