33

C -3.298106909 -3.896199942 0.699992836
C -2.455307007 -3.209899902 1.770992756
O -1.708307028 -2.119099855 1.271292806
C -3.028007030 3.848299980 -1.696807146
C -3.222306967 3.928800106 -0.186607152
O -3.973006964 2.842400074 0.326392829
O 0.716793060 1.740399957 -0.466007173
C 0.836893082 0.565999985 -0.166407153
N -0.171107054 -0.229099989 0.287392855
C 2.137193203 -0.113199979 -0.275407165
C 3.299492836 0.480100006 -0.689107180
C 4.398192883 -0.399099976 -0.696607172
C 4.064692974 -1.652799964 -0.290007174
S 2.402893066 -1.786599994 0.110892847
C -9.647145271 1.834814072 -0.806540012
C -5.641499519 0.436714977 0.260568678
Br -3.600813150 0.058471415 1.397097826
S -3.131547213 1.560867667 0.130470484
O -2.799591541 0.968938529 -0.838115156
P -4.547310352 2.207754850 0.737941563
Br -4.459079266 1.343405724 0.556414783
F -4.345576286 2.763158798 1.992020488
I -8.272418022 1.993166685 1.685854912
I -6.132650375 -1.313012958 -0.033508182
O -6.687870979 1.277460217 1.224992752
S -7.077126503 0.920224011 -1.038360715
C -8.477050781 -0.368806899 2.591136694
C -3.821933985 1.585233808 -0.547149956
N -6.573070526 2.854515076 -0.336978525
F -7.399855137 0.964907944 -0.357560128
C -2.798908949 1.312942863 2.912688255
I -2.284615517 2.007811546 2.383611917
I -2.940220594 0.810923576 0.509465516
