33

C -3.298106909 -3.896199942 0.699992836
C -2.455307007 -3.209899902 1.770992756
O -1.708307028 -2.119099855 1.271292806
C -3.028007030 3.848299980 -1.696807146
C -3.222306967 3.928800106 -0.186607152
O -3.973006964 2.842400074 0.326392829
O 0.716793060 1.740399957 -0.466007173
C 0.836893082 0.565999985 -0.166407153
N -0.171107054 -0.229099989 0.287392855
C 2.137193203 -0.113199979 -0.275407165
C 3.299492836 0.480100006 -0.689107180
C 4.398192883 -0.399099976 -0.696607172
C 4.064692974 -1.652799964 -0.290007174
S 2.402893066 -1.786599994 0.110892847
C -9.901753426 2.036528349 -0.771356165
C -5.481638908 0.471118301 -0.174061716
Br -3.889970541 -0.032293856 1.167573333
S -3.375058174 2.025211334 -0.130741179
O -2.882091999 0.929207206 -0.865646899
P -4.583477497 1.887476206 0.849525630
Br -4.909397125 1.365680695 0.789863229
O -4.617680550 2.871606350 1.987344861
I -9.029131889 1.948654056 1.508573771
P -6.174996376 -1.615038157 -0.197216988
O -6.930700779 1.041160583 1.361539960
S -7.201930523 1.115557909 -1.371518493
C -8.858801842 -0.171368986 2.508985043
C -3.880608797 2.034841299 -0.310618728
N -6.394754887 2.591914654 -0.735744476
S -7.785291672 1.032894731 0.306797177
C -2.679562330 1.258852363 3.517812490
I -2.201965570 1.787109137 2.093714237
I -3.039884329 0.866163969 0.704182506
