33

C -3.298106909 -3.896199942 0.699992836
C -2.455307007 -3.209899902 1.770992756
O -1.708307028 -2.119099855 1.271292806
C -3.028007030 3.848299980 -1.696807146
C -3.222306967 3.928800106 -0.186607152
O -3.973006964 2.842400074 0.326392829
O 0.716793060 1.740399957 -0.466007173
C 0.836893082 0.565999985 -0.166407153
N -0.171107054 -0.229099989 0.287392855
C 2.137193203 -0.113199979 -0.275407165
C 3.299492836 0.480100006 -0.689107180
C 4.398192883 -0.399099976 -0.696607172
C 4.064692974 -1.652799964 -0.290007174
S 2.402893066 -1.786599994 0.110892847
C -11.289906502 3.033890247 -1.421749949
O -7.741322994 1.036093116 -0.909770131
Br -4.081727982 0.261876553 0.933724105
S -3.760765553 2.113736629 -0.865215063
N -3.503578186 1.695184946 -0.659180164
P -5.172118187 1.211912036 1.694867730
C -5.952903271 2.919307232 1.118875384
I -6.481748104 2.832177401 2.292901278
Br -10.302155495 2.339636326 1.113767028
C -6.047792435 0.347186118 1.154547691
O -7.525904655 0.716178536 0.374013722
O -8.522171974 3.154561043 -0.944081843
C -9.555227280 1.037422895 2.042956829
C -5.629846573 3.216106415 0.639405012
I -8.703828812 2.388003111 -0.981326938
F -9.215425491 0.564973533 0.721308112
O -3.330653667 1.415143609 3.324716806
N -2.923603535 2.165797234 1.495266199
I -2.458567858 0.570780039 0.380428106
