33

C -3.298106909 -3.896199942 0.699992836
C -2.455307007 -3.209899902 1.770992756
O -1.708307028 -2.119099855 1.271292806
C -3.028007030 3.848299980 -1.696807146
C -3.222306967 3.928800106 -0.186607152
O -3.973006964 2.842400074 0.326392829
O 0.716793060 1.740399957 -0.466007173
C 0.836893082 0.565999985 -0.166407153
N -0.171107054 -0.229099989 0.287392855
C 2.137193203 -0.113199979 -0.275407165
C 3.299492836 0.480100006 -0.689107180
C 4.398192883 -0.399099976 -0.696607172
C 4.064692974 -1.652799964 -0.290007174
S 2.402893066 -1.786599994 0.110892847
Br -3.804795265 0.857386768 -0.892707944
N -0.334259808 2.921732903 0.220898092
F -1.417931914 1.745379210 1.871725082
O -0.221833795 1.873813987 0.539015055
S -0.464941531 -0.928106010 -0.158062086
I -1.752678990 0.901684225 0.160844058
P -0.588105142 0.732788265 0.406982183
S -1.190075874 -0.788503289 2.302596331
I -3.431453466 0.529710531 0.976491928
Cl -0.632479072 -0.624057651 1.503829598
O -2.861979961 -0.007632852 1.109288096
O -2.567480087 -0.537761092 -1.488198996
P -2.857455254 -1.157002926 0.354372531
C -0.714468539 0.606914937 -0.898024499
I -2.124286890 -1.205053329 0.058268771
C -2.200117350 0.017427817 1.101022601
Br -1.520236611 -0.446791798 0.824516833
F -0.940180659 1.710037947 2.309994221
I -0.298221111 -0.937016010 0.987711608
