33

C -3.298106909 -3.896199942 0.699992836
C -2.455307007 -3.209899902 1.770992756
O -1.708307028 -2.119099855 1.271292806
C -3.028007030 3.848299980 -1.696807146
C -3.222306967 3.928800106 -0.186607152
O -3.973006964 2.842400074 0.326392829
O 0.716793060 1.740399957 -0.466007173
C 0.836893082 0.565999985 -0.166407153
N -0.171107054 -0.229099989 0.287392855
C 2.137193203 -0.113199979 -0.275407165
C 3.299492836 0.480100006 -0.689107180
C 4.398192883 -0.399099976 -0.696607172
C 4.064692974 -1.652799964 -0.290007174
S 2.402893066 -1.786599994 0.110892847
P 2.318673611 0.105102301 -0.090493336
P 0.521710515 -1.982166290 0.105592340
S 0.118158013 0.424539328 1.513690233
O -1.261060715 -1.666428566 -0.061867982
Cl 0.793516517 -0.488277584 0.359666318
O 0.087874472 0.467550039 1.264255762
P -0.836418986 -0.133890286 0.764070809
I 0.222175717 -0.226574570 0.098282412
C -0.377431214 1.736783862 -0.979694188
Cl 0.056094766 -0.974651635 -0.683621526
S -0.756467223 -1.168210506 -0.188992679
F -0.632016957 -0.520596921 -1.377753139
P -0.393851221 -1.732562661 -0.946903229
F 1.209932566 -1.612074375 -1.149871349
Cl -1.715745091 1.281010985 0.316176146
C -0.641440332 -2.106787920 -0.733586967
Cl -2.093669176 -1.374441147 0.085118592
Br 0.366088450 0.670575857 1.129971027
I -0.838735282 -1.505265594 0.984114766
