33

C -3.298106909 -3.896199942 0.699992836
C -2.455307007 -3.209899902 1.770992756
O -1.708307028 -2.119099855 1.271292806
C -3.028007030 3.848299980 -1.696807146
C -3.222306967 3.928800106 -0.186607152
O -3.973006964 2.842400074 0.326392829
O 0.716793060 1.740399957 -0.466007173
C 0.836893082 0.565999985 -0.166407153
N -0.171107054 -0.229099989 0.287392855
C 2.137193203 -0.113199979 -0.275407165
C 3.299492836 0.480100006 -0.689107180
C 4.398192883 -0.399099976 -0.696607172
C 4.064692974 -1.652799964 -0.290007174
S 2.402893066 -1.786599994 0.110892847
C -11.755147934 2.963689327 -0.940267742
S -8.173130989 1.262423992 -0.576219440
I -3.639806986 0.391402930 1.136222839
I -3.919845104 2.134161234 -0.243618533
N -4.087564945 1.827701569 -0.540736973
Cl -6.073300838 1.106939316 1.986967564
F -6.212133884 3.105132818 0.738387287
Cl -6.894423008 2.676522017 1.619383574
N -10.337790489 1.899219751 0.944687247
N -6.279736042 0.559543729 1.290256739
Cl -8.056913376 0.810127378 0.149294704
S -9.075120926 2.868781090 -0.903545022
C -10.207263947 1.409258127 2.459734440
P -5.584442616 2.944836140 1.421175480
I -9.416584015 2.351039410 -0.877672732
F -10.501653671 1.314427853 0.852330923
F -3.771180868 1.203161597 2.819157839
P -3.038809776 2.464705944 1.610100865
C -2.495476723 0.084544994 0.431799054
