33

C -3.298106909 -3.896199942 0.699992836
C -2.455307007 -3.209899902 1.770992756
O -1.708307028 -2.119099855 1.271292806
C -3.028007030 3.848299980 -1.696807146
C -3.222306967 3.928800106 -0.186607152
O -3.973006964 2.842400074 0.326392829
O 0.716793060 1.740399957 -0.466007173
C 0.836893082 0.565999985 -0.166407153
N -0.171107054 -0.229099989 0.287392855
C 2.137193203 -0.113199979 -0.275407165
C 3.299492836 0.480100006 -0.689107180
C 4.398192883 -0.399099976 -0.696607172
C 4.064692974 -1.652799964 -0.290007174
S 2.402893066 -1.786599994 0.110892847
C -11.961938858 3.108672619 -0.873106599
S -8.705777168 1.179571629 -0.777152419
F -3.232987165 -0.115741439 1.274316311
I -4.549571991 1.697433114 -0.337095112
Br -4.081494808 1.836961985 -0.448300809
Cl -5.477592945 1.446327686 2.254194736
F -6.400303364 3.593844652 1.108533382
N -7.133025646 2.735210180 1.827264428
F -11.227565765 2.329387426 1.342019320
N -7.322349548 1.118027449 0.828474164
Cl -8.094919205 0.933704555 0.388884813
C -9.456007004 3.742324591 0.126897097
C -10.473485947 1.735898495 1.765552640
C -5.962898254 2.638624191 1.576332569
N -9.790399551 1.800581574 -0.706776738
S -10.583881378 1.606393456 0.847923875
C -3.177391052 1.528404236 1.694592595
F -3.920472860 2.050267935 1.987047791
P -2.826422453 0.273182601 0.271435976
