33

C -3.298106909 -3.896199942 0.699992836
C -2.455307007 -3.209899902 1.770992756
O -1.708307028 -2.119099855 1.271292806
C -3.028007030 3.848299980 -1.696807146
C -3.222306967 3.928800106 -0.186607152
O -3.973006964 2.842400074 0.326392829
O 0.716793060 1.740399957 -0.466007173
C 0.836893082 0.565999985 -0.166407153
N -0.171107054 -0.229099989 0.287392855
C 2.137193203 -0.113199979 -0.275407165
C 3.299492836 0.480100006 -0.689107180
C 4.398192883 -0.399099976 -0.696607172
C 4.064692974 -1.652799964 -0.290007174
S 2.402893066 -1.786599994 0.110892847
C -12.464095116 3.319689751 -0.905306697
Br -9.218830109 1.507546544 -0.603143275
C -3.164394140 0.390860707 1.129606724
C -5.149430752 1.978410602 -0.012536596
C -4.326820374 1.930383563 -0.677881300
C -5.265707493 1.656954050 2.352030516
N -6.906152248 3.659268856 1.160808444
N -7.466851711 2.759920835 1.595455766
C -11.746005058 2.166439056 0.941479027
C -7.252716064 1.013799906 0.484776258
S -8.580101013 0.949847937 0.289429575
C -9.488118172 3.639094830 0.436444193
C -10.532567978 1.762014627 2.173142195
C -6.325561523 2.418251514 1.661078215
N -10.439670563 1.923675179 -0.977037311
F -10.745171547 1.593756080 0.723441005
O -3.329778194 1.207559705 1.920177102
C -3.968682528 1.710681677 2.550261736
C -2.670877218 -0.343393385 0.555900633
