33

C -3.298106909 -3.896199942 0.699992836
C -2.455307007 -3.209899902 1.770992756
O -1.708307028 -2.119099855 1.271292806
C -3.028007030 3.848299980 -1.696807146
C -3.222306967 3.928800106 -0.186607152
O -3.973006964 2.842400074 0.326392829
O 0.716793060 1.740399957 -0.466007173
C 0.836893082 0.565999985 -0.166407153
N -0.171107054 -0.229099989 0.287392855
C 2.137193203 -0.113199979 -0.275407165
C 3.299492836 0.480100006 -0.689107180
C 4.398192883 -0.399099976 -0.696607172
C 4.064692974 -1.652799964 -0.290007174
S 2.402893066 -1.786599994 0.110892847
C -12.513837814 3.263294220 -1.018106341
C -9.350882530 1.591985345 -0.590998828
C -3.031282425 0.346515775 1.131109595
C -5.271979809 1.907039285 0.049124356
C -4.286668777 1.959557772 -0.722671509
C -5.250369072 1.673666477 2.306978941
C -6.803528309 3.739943504 1.173136353
N -7.460922718 2.714910030 1.643068433
C -11.728738785 2.203591824 0.914459586
C -7.328893661 1.027408481 0.528955579
N -8.619387627 0.915692925 0.245421603
C -9.521404266 3.590927362 0.434632361
C -10.480050087 1.762769461 2.143604040
C -6.294141769 2.502031565 1.652327418
N -10.505834579 1.947062850 -0.835465789
C -10.718234062 1.585376978 0.688677073
C -3.304190159 1.187040687 1.878167987
C -3.943432093 1.619321465 2.647079706
C -2.512381077 -0.402898699 0.431305289
