33

C -3.298106909 -3.896199942 0.699992836
C -2.455307007 -3.209899902 1.770992756
O -1.708307028 -2.119099855 1.271292806
C -3.028007030 3.848299980 -1.696807146
C -3.222306967 3.928800106 -0.186607152
O -3.973006964 2.842400074 0.326392829
O 0.716793060 1.740399957 -0.466007173
C 0.836893082 0.565999985 -0.166407153
N -0.171107054 -0.229099989 0.287392855
C 2.137193203 -0.113199979 -0.275407165
C 3.299492836 0.480100006 -0.689107180
C 4.398192883 -0.399099976 -0.696607172
C 4.064692974 -1.652799964 -0.290007174
S 2.402893066 -1.786599994 0.110892847
C -12.418124199 3.334912062 -0.874160349
Br -9.119301796 1.404331923 -0.635389984
C -3.173726082 0.416802824 1.229114294
C -5.038520336 1.907373667 -0.015949769
C -4.265223026 1.828025341 -0.688175619
C -5.270362854 1.686198711 2.281916142
N -6.852119446 3.654612064 1.143617749
N -7.381663799 2.725090981 1.482393265
C -11.750955582 2.092058420 0.969625831
C -7.404664516 1.029159665 0.600731671
Br -8.621999741 1.011517525 0.314451665
C -9.340703964 3.628532648 0.285840660
C -10.519396782 1.778471828 2.084097147
C -6.207715034 2.511385202 1.690579176
N -10.368078232 1.980726242 -1.001685977
F -10.735979080 1.542470813 0.590325832
C -3.364094019 1.310341239 1.925457358
C -3.876544476 1.775966525 2.532488585
P -2.722331047 -0.310026109 0.529445171
