33

C -3.298106909 -3.896199942 0.699992836
C -2.455307007 -3.209899902 1.770992756
O -1.708307028 -2.119099855 1.271292806
C -3.028007030 3.848299980 -1.696807146
C -3.222306967 3.928800106 -0.186607152
O -3.973006964 2.842400074 0.326392829
O 0.716793060 1.740399957 -0.466007173
C 0.836893082 0.565999985 -0.166407153
N -0.171107054 -0.229099989 0.287392855
C 2.137193203 -0.113199979 -0.275407165
C 3.299492836 0.480100006 -0.689107180
C 4.398192883 -0.399099976 -0.696607172
C 4.064692974 -1.652799964 -0.290007174
S 2.402893066 -1.786599994 0.110892847
C -10.425435066 2.369799614 -1.059095621
C -6.521177769 0.608640492 -0.505538702
I -4.473357677 -0.146635860 1.408167124
S -3.595836878 1.520395517 -0.520341337
O -3.776915073 1.253024817 -0.998983443
P -5.375767708 1.845510364 1.212908626
Br -5.112306118 1.331075191 0.829585493
O -5.077197552 3.500076294 2.221694469
C -8.674988747 2.406695604 1.067976236
P -5.917551517 -1.177692652 -0.085186556
Cl -6.953912735 0.996968389 1.432925940
S -7.751358032 1.311633706 -1.087714791
C -8.794243813 0.164107323 2.563572645
C -4.914525986 2.644274950 -0.387399912
N -6.775096416 2.478972435 -0.888438523
F -7.619390488 0.835437238 -0.432847708
C -2.988011360 1.019761443 4.015134335
I -2.306972027 1.961539626 1.858263731
I -3.564310312 0.808976293 0.603615522
