33

C -3.298106909 -3.896199942 0.699992836
C -2.455307007 -3.209899902 1.770992756
O -1.708307028 -2.119099855 1.271292806
C -3.028007030 3.848299980 -1.696807146
C -3.222306967 3.928800106 -0.186607152
O -3.973006964 2.842400074 0.326392829
O 0.716793060 1.740399957 -0.466007173
C 0.836893082 0.565999985 -0.166407153
N -0.171107054 -0.229099989 0.287392855
C 2.137193203 -0.113199979 -0.275407165
C 3.299492836 0.480100006 -0.689107180
C 4.398192883 -0.399099976 -0.696607172
C 4.064692974 -1.652799964 -0.290007174
S 2.402893066 -1.786599994 0.110892847
C -10.710198402 3.015916586 -1.160892606
C -7.569276810 0.923819482 -0.407456279
Br -4.541278839 -0.211784184 1.070492387
S -4.449100018 2.141336441 -0.927910089
N -3.692847252 1.180497527 -0.478177279
P -5.483230114 1.552422523 1.151246667
F -5.399390221 1.689971924 1.408470631
P -5.391808987 3.503114700 1.642410278
Br -9.859333992 2.279332876 1.044527650
O -6.033805370 0.099888042 0.673815310
O -7.337042809 1.178645730 0.664045155
O -8.100174904 2.639692068 -0.842366099
Br -9.140185356 0.809154034 1.950274110
Br -4.774280071 3.146574497 0.446509212
I -8.279557228 2.196489811 -0.866997004
F -8.592246056 1.086712480 0.498661786
O -3.250053406 1.779254675 3.512804985
N -2.688479662 2.236583233 1.278821588
Br -2.593277693 0.869376779 0.363657892
