33

C -3.298106909 -3.896199942 0.699992836
C -2.455307007 -3.209899902 1.770992756
O -1.708307028 -2.119099855 1.271292806
C -3.028007030 3.848299980 -1.696807146
C -3.222306967 3.928800106 -0.186607152
O -3.973006964 2.842400074 0.326392829
O 0.716793060 1.740399957 -0.466007173
C 0.836893082 0.565999985 -0.166407153
N -0.171107054 -0.229099989 0.287392855
C 2.137193203 -0.113199979 -0.275407165
C 3.299492836 0.480100006 -0.689107180
C 4.398192883 -0.399099976 -0.696607172
C 4.064692974 -1.652799964 -0.290007174
S 2.402893066 -1.786599994 0.110892847
C -6.235761642 1.486616611 -0.045269564
S -2.790586233 0.772239804 0.708187044
Br -2.798787832 1.018763185 2.674142122
S -1.365242720 2.074182987 0.847794354
O -1.120367408 -0.216568947 0.393096268
Br -2.451081276 2.031419516 -0.762633920
O -2.294148684 2.090846300 -0.585361958
F -0.810930133 1.102103829 1.778192520
O -5.270521641 0.140689135 1.528630853
F -3.464545250 -0.616613269 -0.331999570
C -4.169618130 0.953354001 0.459187448
Cl -4.956772327 -0.076481275 -0.425194561
N -4.768242836 -0.356209129 0.534501314
Br -1.844456911 0.296346217 -2.026869059
S -4.090138435 0.411486983 -0.047080409
S -4.986316204 1.017024040 0.221888244
C -2.690592289 1.089524269 0.866488993
I -1.329696298 2.050187588 1.850938916
O -1.640017509 0.960072160 0.061632548
