33

C -3.298106909 -3.896199942 0.699992836
C -2.455307007 -3.209899902 1.770992756
O -1.708307028 -2.119099855 1.271292806
C -3.028007030 3.848299980 -1.696807146
C -3.222306967 3.928800106 -0.186607152
O -3.973006964 2.842400074 0.326392829
O 0.716793060 1.740399957 -0.466007173
C 0.836893082 0.565999985 -0.166407153
N -0.171107054 -0.229099989 0.287392855
C 2.137193203 -0.113199979 -0.275407165
C 3.299492836 0.480100006 -0.689107180
C 4.398192883 -0.399099976 -0.696607172
C 4.064692974 -1.652799964 -0.290007174
S 2.402893066 -1.786599994 0.110892847
C -6.433714390 3.719119787 -6.275509357
S -3.894912004 2.941019058 -2.355225325
C -6.565994740 5.257153988 -4.154236317
C -8.445410728 3.102671146 -6.201893330
Br -5.687415600 3.986502886 -8.417902946
N -6.777780056 3.890723944 -7.736937046
C -6.178487301 3.219116449 -9.053507805
C -9.113579750 6.207275867 -4.112544060
C -5.250232697 2.396017790 -7.867993832
C -9.360613823 4.727132320 -4.629034519
C -4.646824360 3.336389780 -5.312567234
N -7.070557117 4.154645443 -3.808760643
N -6.484306335 1.436437607 -6.955883503
C -4.768130302 2.350898027 -6.207974911
O -5.039606094 4.187530994 -3.721419334
C -6.719325542 1.716592073 -9.604911804
C -8.013074875 5.148855209 -4.266631126
C -7.057787418 6.020827293 -5.063499928
C -7.193357468 2.329349995 -6.098103523
