33

C -3.298106909 -3.896199942 0.699992836
C -2.455307007 -3.209899902 1.770992756
O -1.708307028 -2.119099855 1.271292806
C -3.028007030 3.848299980 -1.696807146
C -3.222306967 3.928800106 -0.186607152
O -3.973006964 2.842400074 0.326392829
O 0.716793060 1.740399957 -0.466007173
C 0.836893082 0.565999985 -0.166407153
N -0.171107054 -0.229099989 0.287392855
C 2.137193203 -0.113199979 -0.275407165
C 3.299492836 0.480100006 -0.689107180
C 4.398192883 -0.399099976 -0.696607172
C 4.064692974 -1.652799964 -0.290007174
S 2.402893066 -1.786599994 0.110892847
N -3.829120636 2.305155993 -1.999630451
S -1.703567266 0.259677231 -3.003740788
F -4.018394947 2.392099380 -4.137873173
P -4.720566750 2.220580339 -5.146627426
P -2.790447712 3.768142462 -5.567616463
O -2.945382833 1.641605735 -4.946169853
Cl -3.282474279 2.499773502 -4.893426418
N -5.206727028 4.390688896 -3.525621176
P -1.675714493 1.751879930 -4.718986034
F -5.750774860 2.486288548 -3.785907745
N -4.780235767 1.796423197 -1.583465815
N -3.091732979 2.437394619 -1.138018847
N -3.911313772 0.283439040 -3.590477228
C -1.280252337 2.235350132 -3.818434954
I -2.154110670 3.162577391 -2.007097244
I -2.200356483 1.363482237 -5.599551678
F -4.249430656 3.051140070 -1.719443917
P -5.556747913 4.487677097 -3.581344843
Br -3.200985193 0.185430467 -2.747710228
