33

C -3.298106909 -3.896199942 0.699992836
C -2.455307007 -3.209899902 1.770992756
O -1.708307028 -2.119099855 1.271292806
C -3.028007030 3.848299980 -1.696807146
C -3.222306967 3.928800106 -0.186607152
O -3.973006964 2.842400074 0.326392829
O 0.716793060 1.740399957 -0.466007173
C 0.836893082 0.565999985 -0.166407153
N -0.171107054 -0.229099989 0.287392855
C 2.137193203 -0.113199979 -0.275407165
C 3.299492836 0.480100006 -0.689107180
C 4.398192883 -0.399099976 -0.696607172
C 4.064692974 -1.652799964 -0.290007174
S 2.402893066 -1.786599994 0.110892847
O -4.279131889 2.746808052 -3.032795906
N -2.970428228 0.903544188 -3.495325327
N -4.273180962 4.081588745 -4.034828663
P -5.623390675 2.045810699 -4.688518524
P -3.805949926 4.526342392 -6.336154938
O -3.099634171 1.954840064 -5.076001644
Cl -4.905697823 1.626719236 -6.916703701
C -6.446255684 4.619200706 -3.536515236
P -3.341727972 2.925529242 -4.061900616
F -5.108624458 2.453895569 -3.699612856
S -4.766380787 2.406557798 -2.079192162
I -4.450393677 0.788964510 -2.199575186
N -4.329457760 0.784480035 -4.552910805
Cl -3.419691086 2.545193672 -4.320380211
P -2.978556156 3.344578981 -1.569605112
O -3.457213402 1.880588055 -7.465808868
F -4.266287327 4.795444965 -3.205760002
N -5.061913013 4.652636051 -3.371383905
Br -4.538824081 0.397921592 -2.985001326
