33

C -3.298106909 -3.896199942 0.699992836
C -2.455307007 -3.209899902 1.770992756
O -1.708307028 -2.119099855 1.271292806
C -3.028007030 3.848299980 -1.696807146
C -3.222306967 3.928800106 -0.186607152
O -3.973006964 2.842400074 0.326392829
O 0.716793060 1.740399957 -0.466007173
C 0.836893082 0.565999985 -0.166407153
N -0.171107054 -0.229099989 0.287392855
C 2.137193203 -0.113199979 -0.275407165
C 3.299492836 0.480100006 -0.689107180
C 4.398192883 -0.399099976 -0.696607172
C 4.064692974 -1.652799964 -0.290007174
S 2.402893066 -1.786599994 0.110892847
S -5.920451641 3.273551702 -5.650541306
O -4.354660511 2.784157753 -2.393682718
S -5.468606949 4.185373306 -3.334230185
C -7.738517284 3.550806999 -4.975893021
S -4.822970390 4.470728874 -7.909718037
O -5.865787029 2.379809856 -6.714444160
Br -4.608112812 3.152209759 -8.559181213
C -7.874200344 5.651234627 -4.621537209
I -4.157505035 2.598399639 -7.344238281
C -8.070960999 3.712725401 -3.971320152
Br -4.710209370 2.935588837 -4.157181740
N -6.725747108 3.038943052 -3.375401258
O -6.662809849 1.372888803 -5.787767887
I -4.213796139 2.918243647 -5.742898941
P -4.171405315 3.864413261 -2.637258768
N -5.734431744 1.617878437 -8.291536331
O -6.298010349 4.798159122 -3.525902271
C -6.897256851 5.927981377 -3.952593803
Cl -6.750334263 1.781629443 -5.469747066
