33

C -3.298106909 -3.896199942 0.699992836
C -2.455307007 -3.209899902 1.770992756
O -1.708307028 -2.119099855 1.271292806
C -3.028007030 3.848299980 -1.696807146
C -3.222306967 3.928800106 -0.186607152
O -3.973006964 2.842400074 0.326392829
O 0.716793060 1.740399957 -0.466007173
C 0.836893082 0.565999985 -0.166407153
N -0.171107054 -0.229099989 0.287392855
C 2.137193203 -0.113199979 -0.275407165
C 3.299492836 0.480100006 -0.689107180
C 4.398192883 -0.399099976 -0.696607172
C 4.064692974 -1.652799964 -0.290007174
S 2.402893066 -1.786599994 0.110892847
O -4.688159466 2.682094336 -3.270118713
O -3.013253927 0.411494493 -3.845008135
O -4.457735062 4.250872135 -4.351038456
O -5.695844173 2.327105999 -4.512598991
C -4.202432632 4.341134548 -6.316766262
Cl -3.287737131 1.753013849 -5.606272221
Cl -5.498444557 1.857056141 -6.884583950
C -6.369526863 5.082129955 -2.588779449
P -3.602308273 2.428053379 -4.672842026
F -5.232655048 2.390707731 -3.885855913
S -4.568770885 2.293348789 -2.697615862
I -5.231421947 1.145082593 -2.466099739
Br -4.621238708 0.524967432 -4.710545063
Cl -3.127398491 3.149644375 -4.535574436
P -3.049381971 3.571244001 -1.613575935
I -4.175978661 1.732214808 -7.196599007
F -4.876203537 3.746596575 -3.051728010
N -5.276513577 4.723747253 -3.625174522
P -4.456833839 0.633006334 -3.505010366
