33

C -3.298106909 -3.896199942 0.699992836
C -2.455307007 -3.209899902 1.770992756
O -1.708307028 -2.119099855 1.271292806
C -3.028007030 3.848299980 -1.696807146
C -3.222306967 3.928800106 -0.186607152
O -3.973006964 2.842400074 0.326392829
O 0.716793060 1.740399957 -0.466007173
C 0.836893082 0.565999985 -0.166407153
N -0.171107054 -0.229099989 0.287392855
C 2.137193203 -0.113199979 -0.275407165
C 3.299492836 0.480100006 -0.689107180
C 4.398192883 -0.399099976 -0.696607172
C 4.064692974 -1.652799964 -0.290007174
S 2.402893066 -1.786599994 0.110892847
O -5.037772655 3.015751600 -4.510931015
N -3.880401134 1.627675533 -3.548254728
S -4.215415955 4.985364914 -4.132750511
O -6.351003647 2.786930323 -5.095093250
C -4.297908783 4.349973202 -7.165144444
Cl -4.878985405 1.543640733 -5.883651733
Br -4.361589432 2.561166048 -8.064146996
C -7.116056442 4.763111591 -3.065364838
P -3.894159555 2.565501213 -6.269212723
F -6.809346676 2.820202589 -3.750536919
N -5.491409302 2.853127480 -3.576636314
N -5.418977737 2.275972128 -3.402925968
N -5.621747971 0.764723480 -5.362777233
Cl -3.935139656 3.367460251 -5.304912090
P -3.057776690 3.076536894 -2.871923923
I -4.857694149 1.299443364 -8.113840103
C -5.957114697 3.734118223 -3.122310638
I -5.939322472 4.784394741 -3.551020145
P -5.834802151 1.705632448 -4.247035027
