33

C -3.298106909 -3.896199942 0.699992836
C -2.455307007 -3.209899902 1.770992756
O -1.708307028 -2.119099855 1.271292806
C -3.028007030 3.848299980 -1.696807146
C -3.222306967 3.928800106 -0.186607152
O -3.973006964 2.842400074 0.326392829
O 0.716793060 1.740399957 -0.466007173
C 0.836893082 0.565999985 -0.166407153
N -0.171107054 -0.229099989 0.287392855
C 2.137193203 -0.113199979 -0.275407165
C 3.299492836 0.480100006 -0.689107180
C 4.398192883 -0.399099976 -0.696607172
C 4.064692974 -1.652799964 -0.290007174
S 2.402893066 -1.786599994 0.110892847
N -3.246462822 2.028817654 -1.720327497
C -1.244078398 -0.083238572 -3.006229401
O -3.728435516 2.337093115 -3.936343670
P -4.677621365 1.537078500 -4.155203342
C -2.388644934 2.987188339 -5.609129906
O -2.571771145 1.837560177 -4.121255875
O -2.779001713 3.226763487 -4.403102398
N -4.849686623 3.943911076 -3.482463837
S -2.209947348 0.836993158 -3.910773993
I -5.304273129 2.569991112 -2.904078960
S -4.471765995 1.593624949 -1.471577287
Cl -2.466033459 2.066396713 -1.172255039
Cl -3.500073433 -0.111336313 -3.400180817
C -0.904647708 2.260417223 -4.041775227
I -1.837588429 2.446962118 -1.667176604
I -2.384405613 1.431760907 -5.357729912
F -3.672923088 2.134348392 -0.977033079
I -5.072870255 4.341810226 -3.577459335
P -2.631323814 1.334170938 -2.557069778
