33

C -3.298106909 -3.896199942 0.699992836
C -2.455307007 -3.209899902 1.770992756
O -1.708307028 -2.119099855 1.271292806
C -3.028007030 3.848299980 -1.696807146
C -3.222306967 3.928800106 -0.186607152
O -3.973006964 2.842400074 0.326392829
O 0.716793060 1.740399957 -0.466007173
C 0.836893082 0.565999985 -0.166407153
N -0.171107054 -0.229099989 0.287392855
C 2.137193203 -0.113199979 -0.275407165
C 3.299492836 0.480100006 -0.689107180
C 4.398192883 -0.399099976 -0.696607172
C 4.064692974 -1.652799964 -0.290007174
S 2.402893066 -1.786599994 0.110892847
P -3.086176634 2.174494743 -2.176440001
S -1.908688188 0.979023814 -3.438784122
F -3.285196304 0.439836323 -2.177620411
P -2.753950834 1.673711300 -2.806105614
I -1.287857533 2.433138847 -5.614588737
Br -2.965956688 0.435289085 -2.375923395
O -1.935585737 2.250109911 -3.020031214
N -3.119138241 2.746626377 -2.946368217
S -1.346947908 0.767096341 -3.277230740
Cl -4.450459480 1.822662115 -3.804128647
S -4.261761665 1.237800717 -2.332458735
N -3.158164978 1.972993255 -0.559171081
Br -2.369902372 0.168796495 -3.888469458
C -0.628935158 2.274671316 -3.301671982
I -2.875776291 1.285575151 -1.534080744
C -2.173718929 0.881921291 -4.680965424
Br -1.353338480 2.406398773 0.310788840
P -3.343088627 2.441660643 -2.375854731
P -1.986327887 0.302559376 -2.613720417
