33

C -3.298106909 -3.896199942 0.699992836
C -2.455307007 -3.209899902 1.770992756
O -1.708307028 -2.119099855 1.271292806
C -3.028007030 3.848299980 -1.696807146
C -3.222306967 3.928800106 -0.186607152
O -3.973006964 2.842400074 0.326392829
O 0.716793060 1.740399957 -0.466007173
C 0.836893082 0.565999985 -0.166407153
N -0.171107054 -0.229099989 0.287392855
C 2.137193203 -0.113199979 -0.275407165
C 3.299492836 0.480100006 -0.689107180
C 4.398192883 -0.399099976 -0.696607172
C 4.064692974 -1.652799964 -0.290007174
S 2.402893066 -1.786599994 0.110892847
S -5.777593613 3.957268953 -5.908094406
O -3.968765497 2.895287752 -2.198126316
F -5.913854122 4.744315147 -3.517143011
C -8.492788315 3.441053629 -5.635827541
F -5.366588593 4.089612007 -8.285419464
C -6.619975567 3.577027559 -6.913979053
O -4.878004551 3.337608814 -9.007351875
I -8.866507530 5.518223763 -4.562550545
P -4.939697742 2.288020611 -7.712278366
Br -8.332013130 4.470934391 -4.582417488
Br -4.541805267 3.135011196 -4.914808273
I -6.711748123 3.806547403 -3.531722546
Cl -6.653981209 1.073855758 -6.017956257
Cl -4.626059532 2.680551529 -6.013711929
C -4.581732273 3.955379963 -2.996147871
N -6.005318165 2.080464363 -9.026651382
C -7.562404633 5.165070534 -3.846861124
I -7.089016438 6.152276993 -4.551525593
C -7.472492218 2.323111534 -5.948706627
