33

C -3.298106909 -3.896199942 0.699992836
C -2.455307007 -3.209899902 1.770992756
O -1.708307028 -2.119099855 1.271292806
C -3.028007030 3.848299980 -1.696807146
C -3.222306967 3.928800106 -0.186607152
O -3.973006964 2.842400074 0.326392829
O 0.716793060 1.740399957 -0.466007173
C 0.836893082 0.565999985 -0.166407153
N -0.171107054 -0.229099989 0.287392855
C 2.137193203 -0.113199979 -0.275407165
C 3.299492836 0.480100006 -0.689107180
C 4.398192883 -0.399099976 -0.696607172
C 4.064692974 -1.652799964 -0.290007174
S 2.402893066 -1.786599994 0.110892847
S -5.936857700 3.437842607 -5.581823826
O -4.396555901 2.850512505 -2.398349047
I -5.597085476 4.425156593 -3.286523581
P -7.684443951 3.370980978 -4.703125954
S -4.927537441 4.449716568 -8.040484428
C -6.192652702 2.568245888 -6.817803860
Br -4.738355637 3.299659967 -8.614078522
C -7.929325104 5.577941418 -4.641440392
S -4.248133183 2.577481985 -7.341718197
N -8.198484421 3.896376610 -4.086838245
Br -4.785919666 2.929946423 -4.206859589
N -6.626626492 3.041751385 -3.253556967
P -6.668609142 1.357151508 -5.565292358
I -4.422930717 2.763476372 -5.601850510
P -4.238349438 3.944481373 -2.514463902
N -5.583093643 1.693262935 -8.494091988
O -6.486682892 4.900146008 -3.645496368
C -7.079915524 5.926141262 -3.982630253
C -6.838612556 1.935986757 -5.737887383
