33

C -3.298106909 -3.896199942 0.699992836
C -2.455307007 -3.209899902 1.770992756
O -1.708307028 -2.119099855 1.271292806
C -3.028007030 3.848299980 -1.696807146
C -3.222306967 3.928800106 -0.186607152
O -3.973006964 2.842400074 0.326392829
O 0.716793060 1.740399957 -0.466007173
C 0.836893082 0.565999985 -0.166407153
N -0.171107054 -0.229099989 0.287392855
C 2.137193203 -0.113199979 -0.275407165
C 3.299492836 0.480100006 -0.689107180
C 4.398192883 -0.399099976 -0.696607172
C 4.064692974 -1.652799964 -0.290007174
S 2.402893066 -1.786599994 0.110892847
O -4.057013035 3.257947206 -2.549716473
N -3.224839687 0.546131134 -3.087367535
N -4.121166229 3.294635057 -4.100952625
P -5.334026814 2.074974060 -4.423210144
P -3.217713594 4.274120808 -6.362316608
Cl -2.802194357 1.662275076 -5.161787987
C -4.787096024 1.816846728 -6.247467041
N -6.015325546 4.576784134 -3.395664215
I -2.960459948 2.712208509 -3.650139809
F -4.919219971 2.208370447 -3.899916410
S -5.388550282 2.279587984 -2.171504259
I -4.395469666 1.375724316 -2.188718319
Cl -4.486377716 1.108378053 -4.463418961
Cl -3.365596771 2.159524679 -4.015737057
P -2.628002644 3.389454365 -1.685845613
I -2.936668158 2.168392420 -6.536840439
F -4.466928959 4.460831642 -3.283390999
O -4.995815277 4.849945545 -3.607919216
F -4.428824425 0.365010828 -3.538580179
