33

C -3.298106909 -3.896199942 0.699992836
C -2.455307007 -3.209899902 1.770992756
O -1.708307028 -2.119099855 1.271292806
C -3.028007030 3.848299980 -1.696807146
C -3.222306967 3.928800106 -0.186607152
O -3.973006964 2.842400074 0.326392829
O 0.716793060 1.740399957 -0.466007173
C 0.836893082 0.565999985 -0.166407153
N -0.171107054 -0.229099989 0.287392855
C 2.137193203 -0.113199979 -0.275407165
C 3.299492836 0.480100006 -0.689107180
C 4.398192883 -0.399099976 -0.696607172
C 4.064692974 -1.652799964 -0.290007174
S 2.402893066 -1.786599994 0.110892847
Br -2.795169592 0.593043804 -1.901817322
S -2.178321600 1.825974822 -1.960844874
N -2.003798485 1.104290962 -0.910185933
P -3.137057781 1.379557967 -2.626650810
O -1.765140772 1.157392859 -3.868753433
Br -0.631427288 0.354664654 -1.722883105
P -1.100590348 2.279258251 -1.712148070
N -2.483523130 2.203818798 -1.115025759
Cl -0.039289173 1.446293354 -2.365957022
S -2.631646872 1.064422607 -2.428271532
S -1.761165857 1.844924331 -1.719348073
N -3.165834904 2.735904217 -0.347300947
O -0.878108442 0.012505859 -2.012978554
I -0.427275866 1.122886062 -2.852175236
C -1.719150305 -1.182289004 -1.415682554
Cl -1.152923346 1.883261681 -1.549056172
N -1.932809472 1.392668009 -1.419976592
P -2.058408499 0.374434024 -1.513198853
I -1.398121238 0.753049016 -0.961304247
