33

C -3.298106909 -3.896199942 0.699992836
C -2.455307007 -3.209899902 1.770992756
O -1.708307028 -2.119099855 1.271292806
C -3.028007030 3.848299980 -1.696807146
C -3.222306967 3.928800106 -0.186607152
O -3.973006964 2.842400074 0.326392829
O 0.716793060 1.740399957 -0.466007173
C 0.836893082 0.565999985 -0.166407153
N -0.171107054 -0.229099989 0.287392855
C 2.137193203 -0.113199979 -0.275407165
C 3.299492836 0.480100006 -0.689107180
C 4.398192883 -0.399099976 -0.696607172
C 4.064692974 -1.652799964 -0.290007174
S 2.402893066 -1.786599994 0.110892847
P -2.335199356 1.568385482 -1.549648881
Cl -1.058836937 0.042597823 -4.079025745
F -3.544340134 1.055666208 -2.485058546
P -3.524681330 1.908082247 -2.473575592
I -2.053176403 2.341007471 -5.162534237
Br -2.780006886 1.601613045 -2.564180851
O -2.535226822 2.106261253 -3.407305956
N -3.777374983 3.633208036 -3.086601496
S -1.898487806 1.209845543 -3.691431284
Cl -4.456614017 1.938519835 -2.706691742
S -4.312220097 1.352412820 -2.134020567
N -1.951489925 2.602137566 -0.235595793
O -2.653630495 -0.123285636 -2.952327490
C -0.940809608 2.349148273 -3.360830784
I -2.219631195 1.678254128 -2.065984488
C -2.839378834 0.717886090 -5.321596622
Br -2.217226505 2.324419737 0.925492048
I -4.322070122 2.810713768 -3.227913380
P -2.660390854 1.626910686 -3.152728558
