33

C -3.298106909 -3.896199942 0.699992836
C -2.455307007 -3.209899902 1.770992756
O -1.708307028 -2.119099855 1.271292806
C -3.028007030 3.848299980 -1.696807146
C -3.222306967 3.928800106 -0.186607152
O -3.973006964 2.842400074 0.326392829
O 0.716793060 1.740399957 -0.466007173
C 0.836893082 0.565999985 -0.166407153
N -0.171107054 -0.229099989 0.287392855
C 2.137193203 -0.113199979 -0.275407165
C 3.299492836 0.480100006 -0.689107180
C 4.398192883 -0.399099976 -0.696607172
C 4.064692974 -1.652799964 -0.290007174
S 2.402893066 -1.786599994 0.110892847
O -5.236680031 3.090802908 -4.940337658
O -4.135432243 1.956413627 -3.260038614
S -4.359657288 4.704189777 -4.051845551
P -6.918477535 2.828700781 -4.847568989
F -4.557533264 4.148849964 -7.727764130
C -5.148655415 1.688607216 -6.353557587
Br -3.957335234 3.137593985 -7.909967422
C -7.240654469 4.928710938 -3.461328268
N -3.908592939 3.025851727 -6.383657455
F -7.376214981 3.136150599 -3.735624790
N -5.377392292 2.469858408 -3.470459223
N -6.132673264 2.572050095 -3.155114651
O -6.248075485 1.069709063 -5.580858231
Cl -4.097649574 3.226840258 -5.471431255
P -3.333943367 3.442042112 -2.906596184
I -5.324083805 1.503805637 -8.049845695
C -6.131892204 3.747245789 -3.045874834
N -6.447299957 5.328067780 -3.530293941
P -6.370629787 2.536381245 -4.687795639
