33

C -3.298106909 -3.896199942 0.699992836
C -2.455307007 -3.209899902 1.770992756
O -1.708307028 -2.119099855 1.271292806
C -3.028007030 3.848299980 -1.696807146
C -3.222306967 3.928800106 -0.186607152
O -3.973006964 2.842400074 0.326392829
O 0.716793060 1.740399957 -0.466007173
C 0.836893082 0.565999985 -0.166407153
N -0.171107054 -0.229099989 0.287392855
C 2.137193203 -0.113199979 -0.275407165
C 3.299492836 0.480100006 -0.689107180
C 4.398192883 -0.399099976 -0.696607172
C 4.064692974 -1.652799964 -0.290007174
S 2.402893066 -1.786599994 0.110892847
Br -0.029605031 2.320110083 -1.589206576
S 0.779555738 1.016154051 -2.065768719
S 0.100034863 0.490070701 -1.232857704
C -0.283528626 0.977989078 -0.666717529
C -1.766106009 1.531162500 -1.944133997
F -0.208793193 -0.094886914 -2.630870819
S -1.840876818 1.140321374 -1.712818146
F -2.286509514 0.852044225 -0.875693619
F -0.974844694 0.634562850 -2.529770374
S -0.427437901 2.690239191 -1.627995610
S -0.458414108 1.712602615 -0.516372979
S -1.890726686 2.975180864 -1.858774304
P -0.024105996 0.623787403 -1.612582803
P -1.705154657 1.329987764 -2.762505054
O -0.463718176 0.589596748 0.354428679
Cl 0.408617705 2.310697556 0.057521611
P 1.822155952 2.146647215 -0.507284105
F -2.071863651 1.936378956 -1.246327400
O -0.574993312 1.830422759 -0.479324430
