33

C -3.298106909 -3.896199942 0.699992836
C -2.455307007 -3.209899902 1.770992756
O -1.708307028 -2.119099855 1.271292806
C -3.028007030 3.848299980 -1.696807146
C -3.222306967 3.928800106 -0.186607152
O -3.973006964 2.842400074 0.326392829
O 0.716793060 1.740399957 -0.466007173
C 0.836893082 0.565999985 -0.166407153
N -0.171107054 -0.229099989 0.287392855
C 2.137193203 -0.113199979 -0.275407165
C 3.299492836 0.480100006 -0.689107180
C 4.398192883 -0.399099976 -0.696607172
C 4.064692974 -1.652799964 -0.290007174
S 2.402893066 -1.786599994 0.110892847
S -5.477656841 3.059226036 -5.607147694
O -4.353689671 2.247113705 -2.422335386
S -4.541966915 4.910744190 -3.798625946
C -7.276203156 3.133357048 -4.609025002
F -4.558027267 4.759860039 -8.077252388
C -5.580316067 2.238200426 -6.814491272
Br -4.453712940 3.195200443 -7.905605793
C -7.416908264 5.250650406 -3.802908897
N -4.193823814 2.667597532 -7.035311222
C -7.841481686 3.211735725 -4.420683861
F -4.921334743 2.389557123 -3.834223270
N -6.886982441 2.912086487 -2.977213144
O -6.604049683 1.452538133 -5.690351009
Cl -4.373690128 2.757366419 -5.614655495
P -3.772519112 3.463211775 -2.820687294
I -5.608144283 1.987982154 -8.258891106
F -6.369132042 4.086861610 -3.353948355
Br -6.797148228 5.236766815 -3.719769239
Br -6.416095734 2.433928490 -5.476552010
