33

C -3.298106909 -3.896199942 0.699992836
C -2.455307007 -3.209899902 1.770992756
O -1.708307028 -2.119099855 1.271292806
C -3.028007030 3.848299980 -1.696807146
C -3.222306967 3.928800106 -0.186607152
O -3.973006964 2.842400074 0.326392829
O 0.716793060 1.740399957 -0.466007173
C 0.836893082 0.565999985 -0.166407153
N -0.171107054 -0.229099989 0.287392855
C 2.137193203 -0.113199979 -0.275407165
C 3.299492836 0.480100006 -0.689107180
C 4.398192883 -0.399099976 -0.696607172
C 4.064692974 -1.652799964 -0.290007174
S 2.402893066 -1.786599994 0.110892847
N -2.757555485 1.865514517 -2.162197113
C -1.455364585 -0.211060941 -3.080827475
O -3.545464039 1.683186889 -3.818108082
P -4.540779114 1.718964934 -4.172617435
C -2.370116472 2.853391409 -5.449308872
O -2.234860182 1.847548842 -3.929199696
O -2.834204912 3.242937565 -4.446962357
N -4.641768932 4.018693447 -3.481784105
S -1.991743684 0.826005876 -4.235298157
I -5.059851646 2.704654932 -2.918376923
S -4.788401604 1.599773049 -1.160837650
Cl -2.250158310 2.495762110 -0.691537976
N -2.874332905 0.015218630 -3.221009970
C -0.947582722 2.131745100 -3.880912304
I -1.890158296 2.299609900 -1.924484968
I -2.451691151 1.088864923 -5.268072128
F -3.627251863 2.398018360 -0.358587623
P -5.125888348 4.294268131 -3.670442104
P -2.382176161 1.397567272 -2.825540781
