33

C -3.298106909 -3.896199942 0.699992836
C -2.455307007 -3.209899902 1.770992756
O -1.708307028 -2.119099855 1.271292806
C -3.028007030 3.848299980 -1.696807146
C -3.222306967 3.928800106 -0.186607152
O -3.973006964 2.842400074 0.326392829
O 0.716793060 1.740399957 -0.466007173
C 0.836893082 0.565999985 -0.166407153
N -0.171107054 -0.229099989 0.287392855
C 2.137193203 -0.113199979 -0.275407165
C 3.299492836 0.480100006 -0.689107180
C 4.398192883 -0.399099976 -0.696607172
C 4.064692974 -1.652799964 -0.290007174
S 2.402893066 -1.786599994 0.110892847
S -5.931921959 3.305730104 -5.614091396
O -4.313714027 2.716830492 -2.383602858
I -5.721578598 4.305135250 -3.128956079
P -7.864939690 3.320505142 -4.792884350
F -5.063104630 4.509939671 -7.951041698
C -6.205876350 2.642883301 -6.897637367
O -4.734152794 3.477921724 -8.507299423
C -8.064887047 5.624212742 -4.557036877
S -4.378704548 2.505124569 -7.266716957
C -8.217365265 3.904531956 -4.244958878
Br -4.573356152 2.803394556 -3.953271866
N -6.484838963 3.216392756 -3.369112968
P -6.672868729 1.454512477 -5.815014839
I -4.426509857 2.635868788 -5.452781200
P -4.081353188 3.882576704 -2.438826799
N -5.596474648 1.726334214 -8.590694427
O -6.525080681 4.932363033 -3.770748615
C -7.106737137 6.053026676 -4.129796982
C -6.804510117 2.145025969 -5.773602009
