33

C -3.298106909 -3.896199942 0.699992836
C -2.455307007 -3.209899902 1.770992756
O -1.708307028 -2.119099855 1.271292806
C -3.028007030 3.848299980 -1.696807146
C -3.222306967 3.928800106 -0.186607152
O -3.973006964 2.842400074 0.326392829
O 0.716793060 1.740399957 -0.466007173
C 0.836893082 0.565999985 -0.166407153
N -0.171107054 -0.229099989 0.287392855
C 2.137193203 -0.113199979 -0.275407165
C 3.299492836 0.480100006 -0.689107180
C 4.398192883 -0.399099976 -0.696607172
C 4.064692974 -1.652799964 -0.290007174
S 2.402893066 -1.786599994 0.110892847
C -6.486414433 3.741137743 -6.365995407
S -3.832455397 2.979925156 -2.316454649
C -6.486033440 5.322957516 -4.074694157
C -8.382681847 3.097640276 -6.193359852
F -5.723346233 3.924023628 -8.546279907
N -6.759895325 3.855934381 -7.722990036
C -6.266255856 3.235660791 -9.065147400
C -9.141406059 6.242831707 -4.129322052
C -5.282714367 2.421176672 -7.921532631
C -9.496524811 4.699299335 -4.738722324
C -4.585510254 3.406659603 -5.407322884
N -7.035120964 4.105916023 -3.841347933
N -6.644804478 1.681355953 -6.962316990
Cl -4.798569679 2.348707199 -6.336489677
O -5.014035225 4.251316547 -3.741739035
C -6.747895241 1.826388359 -9.606223106
C -8.019195557 5.142802238 -4.305671215
C -7.094934464 6.043930531 -5.075192451
C -7.215985775 2.463123798 -6.176713467
