33

C -3.298106909 -3.896199942 0.699992836
C -2.455307007 -3.209899902 1.770992756
O -1.708307028 -2.119099855 1.271292806
C -3.028007030 3.848299980 -1.696807146
C -3.222306967 3.928800106 -0.186607152
O -3.973006964 2.842400074 0.326392829
O 0.716793060 1.740399957 -0.466007173
C 0.836893082 0.565999985 -0.166407153
N -0.171107054 -0.229099989 0.287392855
C 2.137193203 -0.113199979 -0.275407165
C 3.299492836 0.480100006 -0.689107180
C 4.398192883 -0.399099976 -0.696607172
C 4.064692974 -1.652799964 -0.290007174
S 2.402893066 -1.786599994 0.110892847
Cl -5.602076530 3.221373081 -5.712123871
O -4.268554688 2.746501446 -2.056562901
I -5.870641708 4.580952644 -3.280604362
N -8.271320343 3.183278322 -5.072581291
S -5.354407787 4.412615776 -8.354280472
C -6.434487820 2.779645443 -7.177148819
Br -4.713194370 3.519605875 -8.832194328
C -8.398531914 5.607120991 -4.661638737
S -4.755673885 2.553462267 -7.270965576
N -8.165563583 4.092598915 -4.512956142
Br -4.276401043 2.858797550 -4.062735081
N -6.399584293 3.505599737 -3.494390965
P -6.692895412 1.246804118 -5.862594604
I -4.693086624 2.666946888 -5.658000946
C -4.170746803 3.801770687 -2.778999805
N -5.611769676 1.725308180 -8.696069717
C -6.849594593 4.776646614 -3.731361151
C -7.015663147 5.818177223 -4.256129265
C -6.850902557 2.403409243 -5.905438423
