33

C -3.298106909 -3.896199942 0.699992836
C -2.455307007 -3.209899902 1.770992756
O -1.708307028 -2.119099855 1.271292806
C -3.028007030 3.848299980 -1.696807146
C -3.222306967 3.928800106 -0.186607152
O -3.973006964 2.842400074 0.326392829
O 0.716793060 1.740399957 -0.466007173
C 0.836893082 0.565999985 -0.166407153
N -0.171107054 -0.229099989 0.287392855
C 2.137193203 -0.113199979 -0.275407165
C 3.299492836 0.480100006 -0.689107180
C 4.398192883 -0.399099976 -0.696607172
C 4.064692974 -1.652799964 -0.290007174
S 2.402893066 -1.786599994 0.110892847
C -6.456298828 3.747285843 -6.351080894
O -3.842955351 2.941451550 -2.363077164
C -6.437830448 5.284416676 -4.107236862
C -8.359466553 3.148915529 -6.155731678
C -5.757628918 3.950970650 -8.575139046
N -6.724937439 3.857201815 -7.703603745
C -6.336684704 3.213318348 -9.089023590
C -9.116401672 6.230723858 -4.158364296
C -5.269924164 2.411162853 -7.925023079
C -9.429218292 4.726534367 -4.717111111
C -4.568791389 3.466300488 -5.412303448
N -6.980086803 4.074474812 -3.826655388
N -6.645348549 1.695487380 -6.985157967
C -4.817673206 2.340022087 -6.351680279
O -5.036402702 4.271550655 -3.703383684
C -6.732595444 1.855492949 -9.624874115
C -8.092976570 5.099081039 -4.279186249
C -7.121032715 6.065845966 -5.126112938
C -7.223826885 2.475021124 -6.217172146
