33

C -3.298106909 -3.896199942 0.699992836
C -2.455307007 -3.209899902 1.770992756
O -1.708307028 -2.119099855 1.271292806
C -3.028007030 3.848299980 -1.696807146
C -3.222306967 3.928800106 -0.186607152
O -3.973006964 2.842400074 0.326392829
O 0.716793060 1.740399957 -0.466007173
C 0.836893082 0.565999985 -0.166407153
N -0.171107054 -0.229099989 0.287392855
C 2.137193203 -0.113199979 -0.275407165
C 3.299492836 0.480100006 -0.689107180
C 4.398192883 -0.399099976 -0.696607172
C 4.064692974 -1.652799964 -0.290007174
S 2.402893066 -1.786599994 0.110892847
C -6.439674854 3.634910822 -6.177368641
S -4.003984451 2.902828932 -2.448090792
C -6.539527416 5.166322708 -4.137856007
C -8.370361328 2.983643532 -6.127085686
F -5.754796505 3.933938265 -8.578646660
N -6.750215530 3.746166706 -7.608152390
C -6.099475384 3.333209753 -9.032128334
C -9.168519974 6.158159256 -4.165371418
C -5.244525909 2.419372320 -7.837853432
C -9.318298340 4.555011272 -4.653989315
N -4.509152412 3.340786934 -5.233388424
N -6.976432800 4.157961845 -3.734787941
Cl -6.492280960 1.474202871 -6.977757931
Cl -4.720263958 2.393587589 -6.200846672
F -4.989008904 4.058967590 -3.658304453
N -6.693800926 1.802004814 -9.640571594
C -7.973532200 5.100634575 -4.225505829
C -7.023093224 5.952071667 -5.063233852
Cl -7.053060055 2.340604782 -6.138744831
