33

C -3.298106909 -3.896199942 0.699992836
C -2.455307007 -3.209899902 1.770992756
O -1.708307028 -2.119099855 1.271292806
C -3.028007030 3.848299980 -1.696807146
C -3.222306967 3.928800106 -0.186607152
O -3.973006964 2.842400074 0.326392829
O 0.716793060 1.740399957 -0.466007173
C 0.836893082 0.565999985 -0.166407153
N -0.171107054 -0.229099989 0.287392855
C 2.137193203 -0.113199979 -0.275407165
C 3.299492836 0.480100006 -0.689107180
C 4.398192883 -0.399099976 -0.696607172
C 4.064692974 -1.652799964 -0.290007174
S 2.402893066 -1.786599994 0.110892847
F -0.280656695 0.575156629 -0.505448639
S 1.301363945 0.980171323 -3.887072325
C -1.321533442 0.751453698 -1.308303833
C -1.352391481 1.031135082 -2.962811470
P -2.906408548 1.277215123 -3.409057140
S -0.003783956 1.588370800 -3.428648710
N -1.487458110 1.962497592 -1.132685184
F -1.620591521 1.371495247 -1.107610345
P -0.135491431 0.204420567 -2.854308605
N -0.797598898 2.145420790 -1.089400291
P -1.633156061 1.707542062 -1.466708899
N -1.321042418 2.363219738 -0.976800501
P -0.874626994 1.026241183 -1.246319175
I -1.328147292 2.161377668 -2.975399017
O -0.461269438 -0.916133761 -0.119241238
Cl -1.206234694 1.467961073 0.401843250
F 0.637161851 1.256530166 -0.315501481
F -1.952282310 0.641657829 -2.446367025
C -0.554220557 2.610109806 0.118008822
