33

C -3.298106909 -3.896199942 0.699992836
C -2.455307007 -3.209899902 1.770992756
O -1.708307028 -2.119099855 1.271292806
C -3.028007030 3.848299980 -1.696807146
C -3.222306967 3.928800106 -0.186607152
O -3.973006964 2.842400074 0.326392829
O 0.716793060 1.740399957 -0.466007173
C 0.836893082 0.565999985 -0.166407153
N -0.171107054 -0.229099989 0.287392855
C 2.137193203 -0.113199979 -0.275407165
C 3.299492836 0.480100006 -0.689107180
C 4.398192883 -0.399099976 -0.696607172
C 4.064692974 -1.652799964 -0.290007174
S 2.402893066 -1.786599994 0.110892847
O -4.194520473 2.863648415 -3.103605747
N -2.961979866 0.776703954 -3.880065441
O -4.368581295 4.271247864 -3.931415081
P -5.798475266 2.116485119 -4.766233921
P -3.892616749 4.387579441 -6.334630013
Cl -3.390403271 1.687180281 -5.105962276
Cl -5.306184769 1.942449212 -6.936715126
N -6.361273766 4.617042065 -3.088322639
I -3.641037703 3.134819746 -4.335676670
F -4.914300442 2.493627548 -3.478061199
S -4.478047848 2.442121267 -2.204033136
N -4.495668888 0.986178219 -2.374616623
P -4.403851986 0.759572983 -4.591275692
Cl -3.539504051 2.680119514 -4.248168468
O -3.070846796 3.372050524 -1.637707472
I -3.624650478 1.565088749 -7.604132652
F -4.526668072 4.348122120 -3.047613621
I -5.058327198 4.820046425 -3.612019062
P -4.351644993 0.334161818 -3.440052509
