33

C -3.298106909 -3.896199942 0.699992836
C -2.455307007 -3.209899902 1.770992756
O -1.708307028 -2.119099855 1.271292806
C -3.028007030 3.848299980 -1.696807146
C -3.222306967 3.928800106 -0.186607152
O -3.973006964 2.842400074 0.326392829
O 0.716793060 1.740399957 -0.466007173
C 0.836893082 0.565999985 -0.166407153
N -0.171107054 -0.229099989 0.287392855
C 2.137193203 -0.113199979 -0.275407165
C 3.299492836 0.480100006 -0.689107180
C 4.398192883 -0.399099976 -0.696607172
C 4.064692974 -1.652799964 -0.290007174
S 2.402893066 -1.786599994 0.110892847
O -4.146445751 2.894118309 -2.714188337
N -3.186523438 0.614087522 -3.161936045
N -4.043071270 3.591475487 -3.786917686
P -5.405786037 1.986918569 -4.606399059
P -3.486323357 4.359538555 -6.300324917
Cl -2.952870846 1.925014138 -4.931787014
C -4.733065128 1.908221006 -6.566525936
C -6.000062466 4.402706146 -3.187036753
P -3.025651455 3.018565655 -3.823718309
F -4.888142586 2.006833553 -3.559608221
S -5.081417561 2.033797264 -2.264525175
N -4.501197338 1.097192764 -1.926527143
N -4.311178684 0.833109021 -4.545592785
Cl -3.651863337 2.281284332 -4.299419403
P -2.784229994 3.236469269 -1.454503059
I -3.212491989 2.079074860 -6.861650467
F -4.393264294 4.483594894 -3.084387064
O -5.182472706 4.650035858 -3.306961060
Br -4.418315411 0.536941171 -3.205099344
