33

C -3.298106909 -3.896199942 0.699992836
C -2.455307007 -3.209899902 1.770992756
O -1.708307028 -2.119099855 1.271292806
C -3.028007030 3.848299980 -1.696807146
C -3.222306967 3.928800106 -0.186607152
O -3.973006964 2.842400074 0.326392829
O 0.716793060 1.740399957 -0.466007173
C 0.836893082 0.565999985 -0.166407153
N -0.171107054 -0.229099989 0.287392855
C 2.137193203 -0.113199979 -0.275407165
C 3.299492836 0.480100006 -0.689107180
C 4.398192883 -0.399099976 -0.696607172
C 4.064692974 -1.652799964 -0.290007174
S 2.402893066 -1.786599994 0.110892847
S -6.240268707 3.742117167 -6.218228340
S -4.162297249 2.903684139 -2.213836432
Cl -5.974002838 5.029978275 -3.924891710
C -8.234790802 3.015174866 -6.073149204
F -5.752140522 4.385434628 -8.696913719
C -6.349671841 3.650118589 -7.066673756
O -5.902478695 3.070937634 -8.656620979
O -8.857069969 5.968971252 -4.467858791
C -5.155651569 2.266071558 -7.983243465
C -9.357735634 4.515647411 -4.720545292
N -4.732129097 3.094344139 -5.131721973
N -6.844364643 3.943802834 -3.880389452
N -6.611826897 1.516500950 -6.675932884
Cl -4.667228699 2.646826506 -6.224257946
C -4.975393295 4.171646595 -3.789238691
N -6.324553013 2.044552326 -9.163551331
C -7.956099987 5.147655964 -4.229163647
I -7.081562042 6.238194466 -5.046768188
C -7.041807652 2.482018709 -6.033395767
