33

C -3.298106909 -3.896199942 0.699992836
C -2.455307007 -3.209899902 1.770992756
O -1.708307028 -2.119099855 1.271292806
C -3.028007030 3.848299980 -1.696807146
C -3.222306967 3.928800106 -0.186607152
O -3.973006964 2.842400074 0.326392829
O 0.716793060 1.740399957 -0.466007173
C 0.836893082 0.565999985 -0.166407153
N -0.171107054 -0.229099989 0.287392855
C 2.137193203 -0.113199979 -0.275407165
C 3.299492836 0.480100006 -0.689107180
C 4.398192883 -0.399099976 -0.696607172
C 4.064692974 -1.652799964 -0.290007174
S 2.402893066 -1.786599994 0.110892847
S -5.814003468 3.237552404 -5.651553154
O -4.362333298 2.776044607 -2.216588497
I -5.726113796 4.458929539 -3.231057167
N -8.147220612 3.186364651 -5.041842461
F -5.274491310 4.352737427 -8.126700401
C -6.476728916 2.702802658 -7.015178680
O -4.614449501 3.356169224 -8.718091011
C -8.103452682 5.642814159 -4.728101254
S -4.530310631 2.583034039 -7.307686329
C -8.233059883 4.066888332 -4.302721024
Br -4.377598763 2.763283491 -3.922638655
N -6.484570980 3.235931396 -3.356177092
P -6.594318390 1.401374102 -5.777165890
I -4.455040932 2.675464630 -5.593548775
C -4.175230980 3.614886522 -2.545524836
N -5.567057610 1.789982200 -8.507948875
C -6.675153732 4.915854454 -3.769882917
C -6.998764038 5.942967415 -4.202915668
C -6.746851921 2.228429317 -5.715753078
