33

C -3.298106909 -3.896199942 0.699992836
C -2.455307007 -3.209899902 1.770992756
O -1.708307028 -2.119099855 1.271292806
C -3.028007030 3.848299980 -1.696807146
C -3.222306967 3.928800106 -0.186607152
O -3.973006964 2.842400074 0.326392829
O 0.716793060 1.740399957 -0.466007173
C 0.836893082 0.565999985 -0.166407153
N -0.171107054 -0.229099989 0.287392855
C 2.137193203 -0.113199979 -0.275407165
C 3.299492836 0.480100006 -0.689107180
C 4.398192883 -0.399099976 -0.696607172
C 4.064692974 -1.652799964 -0.290007174
S 2.402893066 -1.786599994 0.110892847
C -6.494932175 3.709728003 -6.305349827
O -3.843606234 2.941876173 -2.324647188
C -6.439803600 5.287431717 -4.102459431
C -8.361555099 3.198648691 -6.189203262
C -5.759628296 3.916325331 -8.567008972
N -6.726049423 3.788762808 -7.740196228
C -6.367046356 3.164469242 -9.048212051
C -9.120800972 6.198948383 -4.188804626
C -5.278605461 2.380471945 -7.897198677
C -9.413211823 4.741339684 -4.719658852
C -4.561796665 3.468226194 -5.414019585
N -7.030692577 4.094728947 -3.866644144
N -6.641881466 1.749866486 -6.956322670
C -4.819239616 2.390704632 -6.346177578
O -5.096108913 4.259857655 -3.707282782
C -6.685851574 1.900495648 -9.624612808
C -8.078648567 5.082204342 -4.287065029
C -7.158123970 6.046611786 -5.142646313
C -7.250356674 2.492299080 -6.233203888
