33

C -3.298106909 -3.896199942 0.699992836
C -2.455307007 -3.209899902 1.770992756
O -1.708307028 -2.119099855 1.271292806
C -3.028007030 3.848299980 -1.696807146
C -3.222306967 3.928800106 -0.186607152
O -3.973006964 2.842400074 0.326392829
O 0.716793060 1.740399957 -0.466007173
C 0.836893082 0.565999985 -0.166407153
N -0.171107054 -0.229099989 0.287392855
C 2.137193203 -0.113199979 -0.275407165
C 3.299492836 0.480100006 -0.689107180
C 4.398192883 -0.399099976 -0.696607172
C 4.064692974 -1.652799964 -0.290007174
S 2.402893066 -1.786599994 0.110892847
C -6.504957676 3.711676359 -6.300766468
O -3.821053028 2.939783335 -2.320815325
C -6.442865849 5.280851364 -4.104355335
C -8.388483047 3.171888828 -6.233154774
C -5.740621567 3.912178755 -8.555416107
N -6.772618771 3.813175917 -7.727958679
C -6.395949364 3.170202494 -9.043657303
C -9.128676414 6.216005325 -4.209486961
C -5.291120529 2.338100433 -7.856189728
C -9.394490242 4.780809402 -4.760470867
C -4.547298908 3.473515987 -5.408760548
N -7.064926624 4.154530048 -3.872865438
N -6.619220734 1.750204325 -6.978157520
C -4.826246262 2.415084362 -6.357008934
O -5.091256618 4.267795563 -3.703816414
C -6.669482231 1.923533320 -9.645415306
C -8.079481125 5.095703602 -4.305449963
C -7.151970863 6.022398949 -5.172588348
C -7.252002239 2.483749151 -6.237207890
