33

C -3.298106909 -3.896199942 0.699992836
C -2.455307007 -3.209899902 1.770992756
O -1.708307028 -2.119099855 1.271292806
C -3.028007030 3.848299980 -1.696807146
C -3.222306967 3.928800106 -0.186607152
O -3.973006964 2.842400074 0.326392829
O 0.716793060 1.740399957 -0.466007173
C 0.836893082 0.565999985 -0.166407153
N -0.171107054 -0.229099989 0.287392855
C 2.137193203 -0.113199979 -0.275407165
C 3.299492836 0.480100006 -0.689107180
C 4.398192883 -0.399099976 -0.696607172
C 4.064692974 -1.652799964 -0.290007174
S 2.402893066 -1.786599994 0.110892847
S -5.966503620 3.948495150 -6.087820530
P -4.108301640 2.930375814 -2.264193535
F -5.913855076 4.981316566 -3.625618458
C -8.366271973 3.229556084 -6.003259182
F -5.347774029 4.142162800 -8.562573433
C -6.167057991 3.728359461 -7.025197506
O -5.541753292 3.326158285 -8.876071930
C -8.745153427 5.698954582 -4.239654541
C -5.111620903 2.282262325 -7.815542221
Br -8.864068985 4.526636600 -4.776453495
F -4.607728004 3.136836767 -5.044211388
N -7.077507019 3.897953033 -3.765910149
C -6.490247726 1.254242182 -6.253146648
Cl -4.634209633 2.725608349 -6.086976051
C -4.841884613 4.343725681 -3.430361032
N -6.288543701 2.064034700 -9.359337807
C -7.634733200 5.013209820 -4.147692204
I -7.228317261 6.167243004 -4.967867851
C -7.153594017 2.284332037 -6.088206291
