33

C -3.298106909 -3.896199942 0.699992836
C -2.455307007 -3.209899902 1.770992756
O -1.708307028 -2.119099855 1.271292806
C -3.028007030 3.848299980 -1.696807146
C -3.222306967 3.928800106 -0.186607152
O -3.973006964 2.842400074 0.326392829
O 0.716793060 1.740399957 -0.466007173
C 0.836893082 0.565999985 -0.166407153
N -0.171107054 -0.229099989 0.287392855
C 2.137193203 -0.113199979 -0.275407165
C 3.299492836 0.480100006 -0.689107180
C 4.398192883 -0.399099976 -0.696607172
C 4.064692974 -1.652799964 -0.290007174
S 2.402893066 -1.786599994 0.110892847
C -6.217399120 3.613793373 -6.226401806
S -4.034379959 2.793271065 -2.352125645
Cl -6.308618546 5.246285439 -4.186997890
C -8.412165642 2.979792118 -6.251096725
F -5.642840862 3.961737394 -8.587583542
N -6.632552147 3.829230309 -7.390598297
C -6.035315990 3.134980440 -8.921750069
C -9.136388779 6.135995865 -4.180093288
C -5.300098896 2.474415302 -7.979635239
C -9.513433456 4.568034649 -4.546044827
N -4.519993305 3.483843803 -5.196852684
N -6.814687252 4.107191086 -3.822691917
N -6.574012280 1.255861163 -6.863822460
Cl -4.606434822 2.381102324 -6.216756344
F -4.917993546 4.083127975 -3.522250891
C -6.511390209 1.925088882 -9.453372002
C -7.814034462 5.057182789 -4.110555172
C -6.995766640 5.886574268 -5.106355190
C -7.028281212 2.441769600 -6.102003098
