33

C -3.298106909 -3.896199942 0.699992836
C -2.455307007 -3.209899902 1.770992756
O -1.708307028 -2.119099855 1.271292806
C -3.028007030 3.848299980 -1.696807146
C -3.222306967 3.928800106 -0.186607152
O -3.973006964 2.842400074 0.326392829
O 0.716793060 1.740399957 -0.466007173
C 0.836893082 0.565999985 -0.166407153
N -0.171107054 -0.229099989 0.287392855
C 2.137193203 -0.113199979 -0.275407165
C 3.299492836 0.480100006 -0.689107180
C 4.398192883 -0.399099976 -0.696607172
C 4.064692974 -1.652799964 -0.290007174
S 2.402893066 -1.786599994 0.110892847
S -6.316219330 3.641822338 -6.272021770
S -4.087950706 2.770155430 -2.371554375
Cl -6.323699951 5.228499889 -4.104721546
C -8.343882561 2.963662148 -6.358448505
F -5.677070141 4.034611702 -8.589854240
C -6.560232162 3.819924355 -7.367774010
C -5.989137173 3.069975615 -8.985084534
C -9.049301147 6.177505493 -4.159779549
C -5.299764633 2.514566660 -8.040675163
C -9.517738342 4.625856876 -4.677777290
C -4.464164734 3.395596504 -5.178916931
N -6.865639210 4.024961948 -3.864542007
N -6.540925980 1.297255993 -6.779192924
Cl -4.682196140 2.417510986 -6.254254341
F -4.883584023 4.076041698 -3.509222031
C -6.525331020 2.009017706 -9.392115593
C -7.742146969 5.026726246 -4.127145290
I -7.005253315 5.863888264 -5.226282120
C -6.942721844 2.370479584 -6.144786358
