33

C -3.298106909 -3.896199942 0.699992836
C -2.455307007 -3.209899902 1.770992756
O -1.708307028 -2.119099855 1.271292806
C -3.028007030 3.848299980 -1.696807146
C -3.222306967 3.928800106 -0.186607152
O -3.973006964 2.842400074 0.326392829
O 0.716793060 1.740399957 -0.466007173
C 0.836893082 0.565999985 -0.166407153
N -0.171107054 -0.229099989 0.287392855
C 2.137193203 -0.113199979 -0.275407165
C 3.299492836 0.480100006 -0.689107180
C 4.398192883 -0.399099976 -0.696607172
C 4.064692974 -1.652799964 -0.290007174
S 2.402893066 -1.786599994 0.110892847
S -6.033303738 3.912125111 -6.156691074
P -4.147623062 2.970366478 -2.284113407
Cl -5.938611031 5.025337696 -3.596966505
C -8.288868904 3.075680017 -5.968517780
F -5.475277424 4.248009682 -8.579603195
C -6.178554058 3.724044800 -7.166781902
O -5.651642799 3.232877731 -8.947070122
S -8.799500465 5.862055779 -4.426505089
C -5.024745464 2.330238581 -7.803960800
Br -8.982885361 4.457778454 -4.693422794
N -4.661491394 3.161719084 -4.974341393
I -7.055526733 3.755551100 -3.741980076
N -6.428375721 1.282733560 -6.425840378
Cl -4.784068108 2.843183279 -6.080531597
P -4.910569191 4.279421329 -3.513931274
N -6.264234543 2.017844439 -9.302364349
C -7.816596985 5.142211437 -4.070102692
I -7.089963436 6.107895374 -4.935321331
C -7.076416969 2.531227350 -6.121894836
