33

C -3.298106909 -3.896199942 0.699992836
C -2.455307007 -3.209899902 1.770992756
O -1.708307028 -2.119099855 1.271292806
C -3.028007030 3.848299980 -1.696807146
C -3.222306967 3.928800106 -0.186607152
O -3.973006964 2.842400074 0.326392829
O 0.716793060 1.740399957 -0.466007173
C 0.836893082 0.565999985 -0.166407153
N -0.171107054 -0.229099989 0.287392855
C 2.137193203 -0.113199979 -0.275407165
C 3.299492836 0.480100006 -0.689107180
C 4.398192883 -0.399099976 -0.696607172
C 4.064692974 -1.652799964 -0.290007174
S 2.402893066 -1.786599994 0.110892847
N -3.546203136 2.219604969 -1.726062417
Cl -0.986635566 0.314062595 -3.104809046
O -3.514266014 2.197563410 -4.151871204
P -4.841005802 1.785011768 -4.127856255
P -2.840952158 3.346319914 -5.498192787
O -3.109478951 1.882748008 -4.133979797
Cl -3.134743690 2.712622881 -4.597356796
N -4.931581020 4.373998165 -3.739181757
P -2.039271593 1.191331863 -4.275586605
I -5.587653160 2.394288540 -3.157814503
C -4.478054047 1.759088993 -1.356539369
Cl -2.839543343 2.166390181 -1.177654386
I -3.511885881 0.323830783 -3.528116941
C -0.965387940 2.031136036 -4.098525524
O -2.260763168 2.801770687 -1.462811351
I -1.961537838 1.226948738 -5.546012878
F -3.633087158 2.679098129 -0.876280904
P -5.263908863 3.972563028 -3.305196285
Br -2.712996006 1.113198876 -2.405257463
