33

C -3.298106909 -3.896199942 0.699992836
C -2.455307007 -3.209899902 1.770992756
O -1.708307028 -2.119099855 1.271292806
C -3.028007030 3.848299980 -1.696807146
C -3.222306967 3.928800106 -0.186607152
O -3.973006964 2.842400074 0.326392829
O 0.716793060 1.740399957 -0.466007173
C 0.836893082 0.565999985 -0.166407153
N -0.171107054 -0.229099989 0.287392855
C 2.137193203 -0.113199979 -0.275407165
C 3.299492836 0.480100006 -0.689107180
C 4.398192883 -0.399099976 -0.696607172
C 4.064692974 -1.652799964 -0.290007174
S 2.402893066 -1.786599994 0.110892847
Cl -5.695247173 3.718604326 -5.825946808
O -4.126894474 2.713236570 -2.098962307
F -6.189256668 4.688915730 -3.472208261
C -8.335873604 3.026679754 -5.490960598
F -5.388401508 4.067378044 -8.199214935
C -6.468906879 3.367284298 -7.060021877
O -4.792211056 3.336120844 -8.927855492
I -8.959823608 5.694962025 -4.636883736
P -5.075067997 2.437028646 -7.566773891
F -8.347631454 4.449494362 -4.673808098
Br -4.541832447 2.945756912 -4.767936707
N -6.570584297 3.802115440 -3.720125675
Cl -6.759279728 1.197646260 -6.073770046
Cl -5.022565842 2.780944824 -5.875152111
C -4.655705929 3.988646269 -3.064366579
N -5.921953678 1.961892486 -8.899180412
C -7.497715950 4.870202065 -3.701354504
I -7.135297298 6.104172230 -4.436410427
Cl -7.390733719 2.352313757 -5.982297897
