33

C -3.298106909 -3.896199942 0.699992836
C -2.455307007 -3.209899902 1.770992756
O -1.708307028 -2.119099855 1.271292806
C -3.028007030 3.848299980 -1.696807146
C -3.222306967 3.928800106 -0.186607152
O -3.973006964 2.842400074 0.326392829
O 0.716793060 1.740399957 -0.466007173
C 0.836893082 0.565999985 -0.166407153
N -0.171107054 -0.229099989 0.287392855
C 2.137193203 -0.113199979 -0.275407165
C 3.299492836 0.480100006 -0.689107180
C 4.398192883 -0.399099976 -0.696607172
C 4.064692974 -1.652799964 -0.290007174
S 2.402893066 -1.786599994 0.110892847
P -2.597733974 2.031724930 -1.682861447
C -1.444266677 0.180975184 -3.853793383
F -3.626743793 0.941731453 -2.376545668
P -3.070242405 1.686080456 -2.676163435
I -1.572688699 2.251585960 -5.211406708
Br -2.694381475 0.690351009 -2.429056406
O -2.429780722 2.257086515 -3.288287163
N -3.236120939 3.198344707 -2.915380001
S -1.427305460 0.814923882 -3.732415676
Cl -4.601270676 1.768789768 -3.094800711
S -4.443128586 1.154066920 -2.359469414
N -2.197088480 2.343307495 -0.554140091
O -2.821064472 -0.189599156 -3.088744640
C -0.936570466 2.492584229 -3.302873850
I -2.470195532 1.370076299 -2.474777222
C -2.726365805 0.541471899 -5.081708908
Br -1.780729294 2.138744116 0.874618351
P -4.108385086 2.907175779 -3.096225500
P -2.316198587 1.215451598 -2.980939865
