33

C -3.298106909 -3.896199942 0.699992836
C -2.455307007 -3.209899902 1.770992756
O -1.708307028 -2.119099855 1.271292806
C -3.028007030 3.848299980 -1.696807146
C -3.222306967 3.928800106 -0.186607152
O -3.973006964 2.842400074 0.326392829
O 0.716793060 1.740399957 -0.466007173
C 0.836893082 0.565999985 -0.166407153
N -0.171107054 -0.229099989 0.287392855
C 2.137193203 -0.113199979 -0.275407165
C 3.299492836 0.480100006 -0.689107180
C 4.398192883 -0.399099976 -0.696607172
C 4.064692974 -1.652799964 -0.290007174
S 2.402893066 -1.786599994 0.110892847
S -5.357355595 2.914506674 -5.255599499
O -4.150011539 2.107090235 -2.757951260
Cl -4.411812782 4.736156464 -3.862265825
O -7.183464050 3.054558039 -4.617539883
F -4.368169785 4.332403660 -8.047268867
C -5.326388836 2.088450670 -6.531146526
Br -4.395558834 3.054865122 -7.993912220
C -7.457201481 5.177574158 -3.417567253
N -4.086387634 2.903549910 -6.795821190
C -7.514360428 2.983167410 -4.064387321
S -5.247422695 2.482667923 -3.724354267
N -6.429325581 3.019838810 -3.094375372
I -6.306429863 0.996290505 -5.537539482
Cl -4.486801147 3.226745367 -5.425178051
P -3.621576309 3.256684065 -2.664306164
N -5.223186493 1.570749760 -8.396195412
C -6.170132160 4.140534401 -3.045590639
I -6.339155674 5.394932270 -3.708951473
C -6.478841782 2.482532740 -4.842408180
