33

C -3.298106909 -3.896199942 0.699992836
C -2.455307007 -3.209899902 1.770992756
O -1.708307028 -2.119099855 1.271292806
C -3.028007030 3.848299980 -1.696807146
C -3.222306967 3.928800106 -0.186607152
O -3.973006964 2.842400074 0.326392829
O 0.716793060 1.740399957 -0.466007173
C 0.836893082 0.565999985 -0.166407153
N -0.171107054 -0.229099989 0.287392855
C 2.137193203 -0.113199979 -0.275407165
C 3.299492836 0.480100006 -0.689107180
C 4.398192883 -0.399099976 -0.696607172
C 4.064692974 -1.652799964 -0.290007174
S 2.402893066 -1.786599994 0.110892847
N -4.054827690 1.758642554 -2.204758167
C -2.209853888 0.082889184 -3.164257765
F -3.830278158 2.512053728 -4.108966827
P -4.847265244 2.020430326 -5.271962166
P -2.530351162 3.911864996 -5.507986069
F -3.054950714 1.260994911 -4.963404655
Cl -3.514375925 2.569208622 -4.949990749
N -5.219515800 4.640171051 -3.448678493
S -1.851648688 2.084365129 -3.977965832
I -5.335833549 2.740994930 -4.143308640
P -5.106584072 2.357776880 -2.025737286
N -3.495202780 2.432343721 -1.168996811
N -4.150183678 1.145458698 -4.179532051
S -2.205573559 2.165216923 -3.895762920
I -2.158020258 2.980596542 -1.824036598
I -2.428129435 1.329563975 -5.178076744
F -4.348583221 2.992875576 -1.604700804
P -4.944743633 4.196787357 -3.502142906
Br -3.869227648 0.312897712 -2.836886883
