33

C -3.298106909 -3.896199942 0.699992836
C -2.455307007 -3.209899902 1.770992756
O -1.708307028 -2.119099855 1.271292806
C -3.028007030 3.848299980 -1.696807146
C -3.222306967 3.928800106 -0.186607152
O -3.973006964 2.842400074 0.326392829
O 0.716793060 1.740399957 -0.466007173
C 0.836893082 0.565999985 -0.166407153
N -0.171107054 -0.229099989 0.287392855
C 2.137193203 -0.113199979 -0.275407165
C 3.299492836 0.480100006 -0.689107180
C 4.398192883 -0.399099976 -0.696607172
C 4.064692974 -1.652799964 -0.290007174
S 2.402893066 -1.786599994 0.110892847
S -5.870675564 3.962490082 -6.056178093
O -3.858438969 3.043126583 -2.088206768
F -5.986348629 4.770664692 -3.580908537
C -8.503813744 3.351831436 -5.766913891
F -5.224021912 4.083488941 -8.424252510
C -6.364573002 3.731834173 -6.877973080
O -5.044529438 3.309874535 -8.921715736
C -8.672868729 5.631260395 -4.524521351
P -4.852042198 2.356797457 -7.673907280
Br -8.435431480 4.397293568 -4.582296848
Br -4.431112766 3.105744600 -5.105123520
N -6.702129364 3.939852715 -3.478249073
C -6.539361000 1.095325470 -6.033644199
Cl -4.731059551 2.807541370 -5.841186047
P -4.549433231 4.092929363 -3.144696712
I -5.935104370 2.145838022 -9.134445190
C -7.490137100 5.112230778 -3.953325272
I -7.034677982 6.174356937 -4.667585373
Cl -7.288236618 2.359630108 -5.994011879
