33

C -3.298106909 -3.896199942 0.699992836
C -2.455307007 -3.209899902 1.770992756
O -1.708307028 -2.119099855 1.271292806
C -3.028007030 3.848299980 -1.696807146
C -3.222306967 3.928800106 -0.186607152
O -3.973006964 2.842400074 0.326392829
O 0.716793060 1.740399957 -0.466007173
C 0.836893082 0.565999985 -0.166407153
N -0.171107054 -0.229099989 0.287392855
C 2.137193203 -0.113199979 -0.275407165
C 3.299492836 0.480100006 -0.689107180
C 4.398192883 -0.399099976 -0.696607172
C 4.064692974 -1.652799964 -0.290007174
S 2.402893066 -1.786599994 0.110892847
P -4.319843292 1.669172406 -1.403859138
C -2.017780542 1.057494760 -1.946678519
N -2.501595259 1.003034472 -1.872961640
P -2.178298473 1.434039235 -3.312149763
I -1.592457891 2.350540161 -4.721158028
N -1.254329205 0.306695700 -2.489299774
Cl -2.237943888 3.355355501 -2.039233685
C -2.631624460 2.109885216 -1.938662767
Cl -0.151171684 0.951477706 -2.140856981
S -3.527969599 1.501464367 -4.364482403
S -2.644578934 2.688422441 -1.382885456
N -2.154596567 3.378656864 -1.044651151
N -0.470724791 -0.278401136 -3.704597235
I -0.482093036 1.229724646 -2.406671047
C -2.281307936 0.303449720 -1.190397859
P -1.766099691 2.596058369 -3.163202047
F -1.655841112 2.461284876 -0.165454626
P -2.609746695 0.829434693 -1.766423941
C -1.084136605 -0.247304216 -2.001308680
