33

C -3.298106909 -3.896199942 0.699992836
C -2.455307007 -3.209899902 1.770992756
O -1.708307028 -2.119099855 1.271292806
C -3.028007030 3.848299980 -1.696807146
C -3.222306967 3.928800106 -0.186607152
O -3.973006964 2.842400074 0.326392829
O 0.716793060 1.740399957 -0.466007173
C 0.836893082 0.565999985 -0.166407153
N -0.171107054 -0.229099989 0.287392855
C 2.137193203 -0.113199979 -0.275407165
C 3.299492836 0.480100006 -0.689107180
C 4.398192883 -0.399099976 -0.696607172
C 4.064692974 -1.652799964 -0.290007174
S 2.402893066 -1.786599994 0.110892847
N -3.638673306 1.952381968 -2.540484667
C -2.703375816 0.591951847 -3.221038342
F -3.727188110 2.755698204 -4.075398445
P -5.382269859 2.443654537 -4.939569950
P -2.525572300 3.771295786 -5.959087372
F -3.212861061 1.094129801 -4.605886936
Cl -3.984120131 1.798914194 -5.663589001
N -5.558913231 4.667209148 -3.752867222
S -2.049988031 1.997282028 -3.967549562
F -5.204633713 2.986649752 -4.191027164
S -5.104402065 2.076988697 -2.068110943
N -4.090462685 1.877861381 -1.485501766
N -4.436744690 1.429946065 -4.128329277
S -2.564950228 2.315284967 -3.797117949
C -1.887374043 3.161760807 -1.955468178
I -2.064990759 1.884194374 -5.928274632
N -4.213760376 3.770104885 -1.810746312
C -4.644345284 4.263845921 -3.581990957
C -4.062196732 0.507819474 -3.528308392
