33

C -3.298106909 -3.896199942 0.699992836
C -2.455307007 -3.209899902 1.770992756
O -1.708307028 -2.119099855 1.271292806
C -3.028007030 3.848299980 -1.696807146
C -3.222306967 3.928800106 -0.186607152
O -3.973006964 2.842400074 0.326392829
O 0.716793060 1.740399957 -0.466007173
C 0.836893082 0.565999985 -0.166407153
N -0.171107054 -0.229099989 0.287392855
C 2.137193203 -0.113199979 -0.275407165
C 3.299492836 0.480100006 -0.689107180
C 4.398192883 -0.399099976 -0.696607172
C 4.064692974 -1.652799964 -0.290007174
S 2.402893066 -1.786599994 0.110892847
S -5.401552200 2.878500462 -5.337071419
O -4.181592464 2.173105240 -2.804117918
S -4.413276672 4.749589443 -3.972141504
P -7.494286537 3.327692986 -4.732649803
F -4.537445068 4.429424763 -8.102543831
C -5.410982132 2.205640316 -6.673964977
Br -4.322771549 3.255937099 -7.936244965
C -7.474183559 5.264876366 -3.523648977
N -4.167340279 2.766888618 -6.876433372
C -7.799240112 3.241840839 -4.302935600
N -5.257458687 2.465243578 -3.683504820
N -6.577604771 3.180441618 -3.159678698
I -6.568229675 1.088361382 -5.725576878
Cl -4.492333412 2.959704399 -5.529991627
P -3.585649014 3.671725035 -2.944869041
N -5.365852356 1.727866411 -8.498457909
C -6.259841442 4.072957039 -3.290362358
I -6.573551655 5.297503948 -3.632595062
C -6.416278362 2.578339100 -5.031376839
