33

C -3.298106909 -3.896199942 0.699992836
C -2.455307007 -3.209899902 1.770992756
O -1.708307028 -2.119099855 1.271292806
C -3.028007030 3.848299980 -1.696807146
C -3.222306967 3.928800106 -0.186607152
O -3.973006964 2.842400074 0.326392829
O 0.716793060 1.740399957 -0.466007173
C 0.836893082 0.565999985 -0.166407153
N -0.171107054 -0.229099989 0.287392855
C 2.137193203 -0.113199979 -0.275407165
C 3.299492836 0.480100006 -0.689107180
C 4.398192883 -0.399099976 -0.696607172
C 4.064692974 -1.652799964 -0.290007174
S 2.402893066 -1.786599994 0.110892847
N -1.514228702 0.355595738 -1.718412161
C -1.988190055 0.172177270 -1.158417344
P -0.653750896 1.001675725 -1.351371050
O -1.452567220 1.946277618 -1.046478868
P -1.553901792 0.429334104 0.852947354
I -2.227739811 -1.115587711 1.036631107
Cl -1.522030711 0.133001357 0.379234552
P -1.942057371 -0.750400543 -1.437893152
Br -0.460179895 0.684790492 -3.470703840
P -2.205272913 -0.244518667 -0.017248079
F -1.033742666 -0.731411040 -2.775816202
S -1.676074505 1.582426429 -3.120644093
O 0.903990209 -0.157969818 -2.634498358
Cl -1.775433779 -0.813801646 0.025655538
S -1.958509445 0.072565764 -1.875900865
Cl -2.385312080 -1.365336299 -1.563361287
Cl -1.626564860 0.029810756 -1.361022115
Cl -3.041692972 -0.019836098 -0.436331272
O -2.545892239 0.449558198 -1.200366735
