33

C -3.298106909 -3.896199942 0.699992836
C -2.455307007 -3.209899902 1.770992756
O -1.708307028 -2.119099855 1.271292806
C -3.028007030 3.848299980 -1.696807146
C -3.222306967 3.928800106 -0.186607152
O -3.973006964 2.842400074 0.326392829
O 0.716793060 1.740399957 -0.466007173
C 0.836893082 0.565999985 -0.166407153
N -0.171107054 -0.229099989 0.287392855
C 2.137193203 -0.113199979 -0.275407165
C 3.299492836 0.480100006 -0.689107180
C 4.398192883 -0.399099976 -0.696607172
C 4.064692974 -1.652799964 -0.290007174
S 2.402893066 -1.786599994 0.110892847
P -4.335483551 0.090063855 -0.565640748
F -2.933527946 1.435462475 -1.539378643
I -1.332027793 1.080869555 -1.652866006
S -1.985805273 1.631869555 -1.289003015
P -2.726018190 -0.749925971 0.706182003
F -1.423901081 -3.056715012 -1.351610422
Cl -3.701335669 -0.968266606 -1.244269490
Cl -4.082826138 -1.067294955 -1.846800804
O -2.371653557 1.016677380 -3.171853065
O -2.727396011 -0.078408279 -0.841300189
S -0.729257345 -0.565940619 -1.551412582
Cl -3.783635378 -0.078586042 -2.562865257
O -1.036305785 -0.114495695 -2.266516447
P -1.180593848 -2.065582752 -0.934300661
P -2.952738047 -0.722124100 -1.356706619
C -2.792286873 -0.904800236 -2.353424549
Cl -0.150086507 0.521523476 -2.198022366
O -1.324617863 0.136563122 -2.100508690
F -2.758006573 0.208194330 -0.640016496
