33

C -3.298106909 -3.896199942 0.699992836
C -2.455307007 -3.209899902 1.770992756
O -1.708307028 -2.119099855 1.271292806
C -3.028007030 3.848299980 -1.696807146
C -3.222306967 3.928800106 -0.186607152
O -3.973006964 2.842400074 0.326392829
O 0.716793060 1.740399957 -0.466007173
C 0.836893082 0.565999985 -0.166407153
N -0.171107054 -0.229099989 0.287392855
C 2.137193203 -0.113199979 -0.275407165
C 3.299492836 0.480100006 -0.689107180
C 4.398192883 -0.399099976 -0.696607172
C 4.064692974 -1.652799964 -0.290007174
S 2.402893066 -1.786599994 0.110892847
P -5.826075554 -1.724380374 -1.392630696
O -6.865388393 1.927920938 -3.311622381
Br -4.439572811 0.306785136 -2.604196072
Cl -1.379687667 -0.990144074 -3.387259960
Br -3.387825012 -1.519269347 -2.631975174
C -3.144001484 -3.424267292 -2.042811871
O -7.911229134 1.229238153 -3.174206972
S -7.494646549 -0.081439435 -2.611983776
Cl -6.238257408 1.094009995 -2.512214422
I -7.071777821 1.544796586 -1.332207799
S -7.209087849 -1.545010567 -2.322010279
N -6.275219917 -0.255115688 -2.110130787
O -3.802650213 -2.243942022 -2.894929886
N -3.252033234 -3.851864338 -1.561218858
Cl -3.492729425 -0.353008777 -3.395082474
C -5.600369930 -2.405046940 -1.179059505
C -3.234841585 -0.640501857 -4.168754578
Br -4.881121159 -3.295160770 -2.681903362
O -5.276567459 -0.630763710 -1.983724356
