33

C -3.298106909 -3.896199942 0.699992836
C -2.455307007 -3.209899902 1.770992756
O -1.708307028 -2.119099855 1.271292806
C -3.028007030 3.848299980 -1.696807146
C -3.222306967 3.928800106 -0.186607152
O -3.973006964 2.842400074 0.326392829
O 0.716793060 1.740399957 -0.466007173
C 0.836893082 0.565999985 -0.166407153
N -0.171107054 -0.229099989 0.287392855
C 2.137193203 -0.113199979 -0.275407165
C 3.299492836 0.480100006 -0.689107180
C 4.398192883 -0.399099976 -0.696607172
C 4.064692974 -1.652799964 -0.290007174
S 2.402893066 -1.786599994 0.110892847
P -4.878857613 -2.052365303 -1.153783560
Cl -4.904314518 0.644759834 -2.960584879
I -2.828095436 1.345349669 -1.107118249
P -2.074031830 -1.109471560 -2.028293133
P -3.473934412 -0.756387472 -1.951754570
F -2.366651535 -2.268253326 -2.180606842
Br -7.116694450 0.320197374 -2.569469929
Cl -6.561789036 -0.730582535 -2.041654348
O -5.075979233 1.853377342 -2.935006618
Br -5.637194157 1.325941443 -1.994288325
S -4.851901054 -1.672031522 -2.285083294
N -5.787420273 0.028196119 -1.490768790
Br -2.989805698 -2.224658489 -2.551066637
Cl -2.956345081 -3.361027956 -1.143330812
S -4.058801174 0.410846174 -1.791717887
F -4.527343750 -1.647773981 -1.375709295
S -2.644418001 -0.276082247 -3.191595793
Br -3.576831341 -2.495569468 -3.200067997
Cl -5.152426243 -0.386471123 -2.749494314
