33

C -3.298106909 -3.896199942 0.699992836
C -2.455307007 -3.209899902 1.770992756
O -1.708307028 -2.119099855 1.271292806
C -3.028007030 3.848299980 -1.696807146
C -3.222306967 3.928800106 -0.186607152
O -3.973006964 2.842400074 0.326392829
O 0.716793060 1.740399957 -0.466007173
C 0.836893082 0.565999985 -0.166407153
N -0.171107054 -0.229099989 0.287392855
C 2.137193203 -0.113199979 -0.275407165
C 3.299492836 0.480100006 -0.689107180
C 4.398192883 -0.399099976 -0.696607172
C 4.064692974 -1.652799964 -0.290007174
S 2.402893066 -1.786599994 0.110892847
Br -0.085653730 1.083274961 -1.347500324
C -2.063569546 -0.107963845 -1.369628429
Cl -2.073710680 -0.489186496 -1.610550404
I -1.390394807 1.880647182 -1.215806484
P -1.540351272 0.396998644 -0.681422472
S -2.714537382 -1.610141277 1.357322574
Cl -2.147760868 -1.432513714 -1.513633728
O -1.934446454 -1.906208158 -1.002144098
S -1.735282540 0.808401406 -0.779876530
P -1.361419439 0.173164189 -2.145364285
F -0.317939103 0.099480897 -2.033869267
Br -1.286845565 0.251696348 -3.045205116
O 0.175662994 -0.743543565 -2.567258358
Cl -1.318309903 -1.434481144 1.007051229
P -0.854290009 0.063045815 -1.026717186
F -1.361373186 -0.969177127 -1.057998180
O -1.854523778 0.808647871 -1.825659037
N -1.874624848 -0.870310664 -0.736920953
Br -0.932195485 0.318973392 -1.661560178
