33

C -3.298106909 -3.896199942 0.699992836
C -2.455307007 -3.209899902 1.770992756
O -1.708307028 -2.119099855 1.271292806
C -3.028007030 3.848299980 -1.696807146
C -3.222306967 3.928800106 -0.186607152
O -3.973006964 2.842400074 0.326392829
O 0.716793060 1.740399957 -0.466007173
C 0.836893082 0.565999985 -0.166407153
N -0.171107054 -0.229099989 0.287392855
C 2.137193203 -0.113199979 -0.275407165
C 3.299492836 0.480100006 -0.689107180
C 4.398192883 -0.399099976 -0.696607172
C 4.064692974 -1.652799964 -0.290007174
S 2.402893066 -1.786599994 0.110892847
O -4.607994080 -1.768864274 -0.868354023
O -5.730095387 1.140754938 -3.572439671
I -3.607814312 0.916303396 -1.746812224
I -1.389273167 -0.785005927 -2.064394712
P -3.396041393 -0.754800260 -2.421246529
F -2.221342802 -2.647589684 -2.246846199
Br -6.731173515 0.443784356 -2.790180922
I -6.937257767 -0.447101235 -2.891113281
Br -5.682305813 1.128706932 -2.468011141
Cl -5.387600422 1.255174041 -1.898176432
S -6.065431118 -0.834754825 -2.532499552
S -6.106760979 -0.069455750 -2.162527561
O -3.306536198 -2.036849260 -2.901709318
F -2.704390049 -3.127184391 -1.218045712
P -4.366116524 0.244780749 -1.973437309
F -4.783615112 -2.288220406 -1.691123962
S -3.013033390 -0.129972547 -4.163553238
Br -4.527670860 -2.869482756 -3.301193714
C -5.209881783 -0.483419299 -2.162698030
