33

C -3.298106909 -3.896199942 0.699992836
C -2.455307007 -3.209899902 1.770992756
O -1.708307028 -2.119099855 1.271292806
C -3.028007030 3.848299980 -1.696807146
C -3.222306967 3.928800106 -0.186607152
O -3.973006964 2.842400074 0.326392829
O 0.716793060 1.740399957 -0.466007173
C 0.836893082 0.565999985 -0.166407153
N -0.171107054 -0.229099989 0.287392855
C 2.137193203 -0.113199979 -0.275407165
C 3.299492836 0.480100006 -0.689107180
C 4.398192883 -0.399099976 -0.696607172
C 4.064692974 -1.652799964 -0.290007174
S 2.402893066 -1.786599994 0.110892847
P -5.144466877 -2.079606295 -0.785980105
O -6.190964222 1.528654575 -3.441679955
Br -4.175226688 -0.018652059 -2.350316286
Cl -1.559686065 -1.430643678 -2.890710592
P -3.493299246 -1.354508996 -2.717292070
N -2.970813036 -3.138073683 -2.067550898
Br -7.607006073 1.214058161 -3.091549873
S -7.390207767 -0.279177994 -2.693773031
F -5.783493042 1.085324407 -2.835305691
F -6.102946758 1.286755085 -1.962466240
S -7.025385857 -1.005934000 -2.277518034
S -5.746969223 0.064365432 -2.589189291
O -3.557383060 -1.829496384 -2.541965246
F -3.172456026 -3.519611597 -1.789517760
S -3.287655354 0.071231171 -2.678365707
C -5.663550854 -2.281024694 -1.569923520
S -3.098569393 -0.457299560 -3.994067192
Br -4.470393181 -3.176559925 -2.701421738
C -5.542493820 -0.670801640 -1.578500390
