33

C -3.298106909 -3.896199942 0.699992836
C -2.455307007 -3.209899902 1.770992756
O -1.708307028 -2.119099855 1.271292806
C -3.028007030 3.848299980 -1.696807146
C -3.222306967 3.928800106 -0.186607152
O -3.973006964 2.842400074 0.326392829
O 0.716793060 1.740399957 -0.466007173
C 0.836893082 0.565999985 -0.166407153
N -0.171107054 -0.229099989 0.287392855
C 2.137193203 -0.113199979 -0.275407165
C 3.299492836 0.480100006 -0.689107180
C 4.398192883 -0.399099976 -0.696607172
C 4.064692974 -1.652799964 -0.290007174
S 2.402893066 -1.786599994 0.110892847
P -1.648324847 -0.329020083 -1.121127844
C -1.963456154 0.653247714 -0.700357795
P -1.699468851 0.714662910 -1.892252803
N -1.935717463 1.836773515 -0.937196314
P -0.762934864 0.091156691 0.841236591
N -2.968991280 -2.529022455 0.994660258
S -1.730391264 0.348592699 0.130633950
P -2.357925892 -1.584934115 -0.643393278
Br -0.842578530 0.107045546 -3.539914846
O -1.487082601 0.089735895 0.456383884
F -0.778017163 -0.878155708 -2.092668295
S -1.111554623 1.990010262 -2.427677870
O 0.277657479 0.180878460 -2.412083387
I -2.078977585 -1.084624171 -0.327441216
P -3.046859264 -0.375209063 -1.709125996
Cl -2.217983961 -1.023765922 -0.986154079
Cl -1.524445772 -0.268982828 -1.120007277
Cl -2.761280537 -0.020630829 -0.121379554
O -2.475793839 0.196553320 -0.743023634
