33

C -3.298106909 -3.896199942 0.699992836
C -2.455307007 -3.209899902 1.770992756
O -1.708307028 -2.119099855 1.271292806
C -3.028007030 3.848299980 -1.696807146
C -3.222306967 3.928800106 -0.186607152
O -3.973006964 2.842400074 0.326392829
O 0.716793060 1.740399957 -0.466007173
C 0.836893082 0.565999985 -0.166407153
N -0.171107054 -0.229099989 0.287392855
C 2.137193203 -0.113199979 -0.275407165
C 3.299492836 0.480100006 -0.689107180
C 4.398192883 -0.399099976 -0.696607172
C 4.064692974 -1.652799964 -0.290007174
S 2.402893066 -1.786599994 0.110892847
O -4.679965496 -2.121785879 -1.064198732
O -5.910804749 1.204757094 -3.306410551
I -3.681164503 0.471049756 -1.916920424
Cl -1.251963019 -0.869813442 -2.267944098
P -3.202958822 -0.950609028 -2.436078310
F -2.521107435 -2.878964424 -2.353483915
Br -7.006309509 0.644447148 -3.049577236
Cl -7.235364437 -0.412797898 -2.899824858
Br -5.655654430 1.271734715 -2.682042837
Cl -5.394508839 1.326041102 -2.154431105
S -6.441438198 -0.854873538 -2.640491247
S -5.828478813 0.290343583 -2.552648544
O -3.501008272 -2.359083414 -2.770490170
F -3.013646364 -3.265666008 -1.292947650
P -4.120722294 0.413045198 -2.274793625
F -5.204937935 -2.020283937 -1.770694733
S -2.939270020 -0.195039809 -4.154547215
Br -4.470767021 -2.819050789 -3.355980158
C -5.190531731 -0.564916074 -2.249025345
