33

C -3.298106909 -3.896199942 0.699992836
C -2.455307007 -3.209899902 1.770992756
O -1.708307028 -2.119099855 1.271292806
C -3.028007030 3.848299980 -1.696807146
C -3.222306967 3.928800106 -0.186607152
O -3.973006964 2.842400074 0.326392829
O 0.716793060 1.740399957 -0.466007173
C 0.836893082 0.565999985 -0.166407153
N -0.171107054 -0.229099989 0.287392855
C 2.137193203 -0.113199979 -0.275407165
C 3.299492836 0.480100006 -0.689107180
C 4.398192883 -0.399099976 -0.696607172
C 4.064692974 -1.652799964 -0.290007174
S 2.402893066 -1.786599994 0.110892847
C -6.334362030 -1.557715416 -1.562349916
C -7.382062912 2.185155392 -3.223208904
C -5.106883049 0.827876985 -2.499495029
C -1.330021977 -1.309008002 -2.799196720
C -3.097963572 -1.445015907 -2.274961472
N -3.262272835 -2.799496889 -1.840605140
C -7.434369087 1.245399714 -4.038667679
C -8.471732140 -0.099041961 -3.354201555
C -6.476146221 1.445642710 -2.589218140
I -6.427542210 1.974204302 -1.368044615
N -6.922955036 -1.657720804 -2.725699425
C -6.813321590 -0.526150048 -2.384567976
C -3.962816477 -2.410863400 -3.428543091
C -2.418635607 -3.786660194 -1.267905712
C -3.282118320 -0.579255521 -3.675168753
C -5.889453888 -2.333766222 -0.816835284
C -3.802095890 -0.284905672 -4.859433651
O -4.823332310 -3.367860079 -2.630260944
C -5.038160801 -0.538401723 -2.613950014
