33

C -3.298106909 -3.896199942 0.699992836
C -2.455307007 -3.209899902 1.770992756
O -1.708307028 -2.119099855 1.271292806
C -3.028007030 3.848299980 -1.696807146
C -3.222306967 3.928800106 -0.186607152
O -3.973006964 2.842400074 0.326392829
O 0.716793060 1.740399957 -0.466007173
C 0.836893082 0.565999985 -0.166407153
N -0.171107054 -0.229099989 0.287392855
C 2.137193203 -0.113199979 -0.275407165
C 3.299492836 0.480100006 -0.689107180
C 4.398192883 -0.399099976 -0.696607172
C 4.064692974 -1.652799964 -0.290007174
S 2.402893066 -1.786599994 0.110892847
P -5.918971062 -1.739124417 -1.218109846
O -6.881982803 1.887283087 -3.131727219
Br -4.585179329 0.121132806 -2.561745167
Cl -1.462816477 -0.954128921 -3.323404312
Br -3.538773537 -1.558600307 -2.494911432
P -3.152088642 -3.412083387 -2.245842218
Br -7.903265953 1.275953293 -3.337489605
S -7.655531883 -0.071918897 -2.764043331
Cl -6.382219315 1.116654515 -2.679730415
I -7.145229816 1.537871122 -1.368903160
S -7.197345257 -1.615201950 -2.423577785
N -6.250219345 -0.267383277 -2.187170506
I -3.859732866 -2.393466711 -2.998087883
N -3.247822762 -3.932405472 -1.450744033
Cl -3.356337786 -0.433297634 -3.415890694
C -5.717937946 -2.277767181 -1.258421183
N -3.184322834 -0.608117104 -4.087984085
Br -4.808925629 -3.502270937 -2.544373274
O -5.071331978 -0.522618175 -2.178608894
