33

C -3.298106909 -3.896199942 0.699992836
C -2.455307007 -3.209899902 1.770992756
O -1.708307028 -2.119099855 1.271292806
C -3.028007030 3.848299980 -1.696807146
C -3.222306967 3.928800106 -0.186607152
O -3.973006964 2.842400074 0.326392829
O 0.716793060 1.740399957 -0.466007173
C 0.836893082 0.565999985 -0.166407153
N -0.171107054 -0.229099989 0.287392855
C 2.137193203 -0.113199979 -0.275407165
C 3.299492836 0.480100006 -0.689107180
C 4.398192883 -0.399099976 -0.696607172
C 4.064692974 -1.652799964 -0.290007174
S 2.402893066 -1.786599994 0.110892847
P -4.484957695 -1.428258419 -1.083516121
P -5.801684856 1.359627366 -3.298498154
I -3.376156092 0.986854792 -1.342787266
Cl -1.335067034 -0.987292767 -2.029673100
P -3.521952391 -0.859172463 -2.257476807
F -2.397332430 -2.717436790 -2.103657484
Br -6.777399063 0.509303749 -2.676495075
I -7.144457340 -0.423798978 -2.627864599
Br -5.829480171 1.297838807 -2.655573606
Br -5.695426464 1.481273055 -1.772373557
S -5.712990284 -0.988497198 -2.364677668
S -5.743124008 0.038392823 -1.923719525
O -3.042372465 -2.121635437 -2.602576494
Cl -2.832090855 -3.395739079 -0.994175136
S -4.226724148 0.801162601 -2.150761366
F -4.502806187 -1.907744527 -1.769431353
S -3.504098892 -0.044346556 -3.762699366
Br -4.317004204 -2.870626688 -2.777657509
C -5.615830421 -0.265431613 -2.034893274
