33

C -3.298106909 -3.896199942 0.699992836
C -2.455307007 -3.209899902 1.770992756
O -1.708307028 -2.119099855 1.271292806
C -3.028007030 3.848299980 -1.696807146
C -3.222306967 3.928800106 -0.186607152
O -3.973006964 2.842400074 0.326392829
O 0.716793060 1.740399957 -0.466007173
C 0.836893082 0.565999985 -0.166407153
N -0.171107054 -0.229099989 0.287392855
C 2.137193203 -0.113199979 -0.275407165
C 3.299492836 0.480100006 -0.689107180
C 4.398192883 -0.399099976 -0.696607172
C 4.064692974 -1.652799964 -0.290007174
S 2.402893066 -1.786599994 0.110892847
P -4.405382156 -1.538338900 -1.052460790
P -5.751379490 1.156065345 -3.183029652
O -3.020150661 0.805433810 -1.163233042
Cl -1.478574038 -0.890708029 -1.768720508
P -3.536318779 -1.165958881 -2.285907030
F -2.455512524 -2.737571001 -2.233664036
Br -6.934825897 0.404491693 -2.646056890
I -6.938908577 -0.453294396 -2.733515739
Br -5.511599064 1.322948337 -2.991432428
Br -5.669339180 1.437721133 -1.769647479
S -5.876350880 -0.863118052 -2.408627272
N -5.685418129 -0.048184313 -1.817552090
O -2.962167263 -2.094753981 -2.537142277
Cl -2.772230387 -3.365161657 -1.323427200
P -4.306341648 0.601674974 -2.072832584
I -4.180745602 -1.760908365 -1.881550074
S -3.464018822 0.209374651 -3.636386871
Br -4.420887470 -2.771211147 -2.716326952
C -5.543852329 -0.412492454 -2.347176552
