33

C -3.298106909 -3.896199942 0.699992836
C -2.455307007 -3.209899902 1.770992756
O -1.708307028 -2.119099855 1.271292806
C -3.028007030 3.848299980 -1.696807146
C -3.222306967 3.928800106 -0.186607152
O -3.973006964 2.842400074 0.326392829
O 0.716793060 1.740399957 -0.466007173
C 0.836893082 0.565999985 -0.166407153
N -0.171107054 -0.229099989 0.287392855
C 2.137193203 -0.113199979 -0.275407165
C 3.299492836 0.480100006 -0.689107180
C 4.398192883 -0.399099976 -0.696607172
C 4.064692974 -1.652799964 -0.290007174
S 2.402893066 -1.786599994 0.110892847
C -6.443970203 -1.392326474 -1.481472969
F -7.309594154 2.162947178 -3.409925461
P -5.198880196 0.792298019 -2.489652634
C -1.301751733 -1.243449092 -2.825346470
C -3.006498814 -1.544025898 -2.223052025
C -3.052662134 -2.808479786 -2.037823439
C -7.445391178 1.397034645 -3.940313101
P -8.512008667 -0.088359840 -3.276767015
C -6.457191467 1.460363626 -2.540135384
O -6.577527046 1.810130954 -1.490531325
N -7.050700665 -1.608302593 -2.545539856
C -6.643687248 -0.435795903 -2.443435907
P -3.915315628 -2.359742403 -3.305379629
Br -2.286816597 -3.691727877 -1.311670184
S -3.334431410 -0.704269826 -3.591321707
C -5.862628937 -2.270772457 -0.911085248
N -3.905779600 -0.205542207 -4.751933575
O -4.796772957 -3.576931000 -2.543555021
C -4.924762249 -0.698853135 -2.658021450
