33

C -3.298106909 -3.896199942 0.699992836
C -2.455307007 -3.209899902 1.770992756
O -1.708307028 -2.119099855 1.271292806
C -3.028007030 3.848299980 -1.696807146
C -3.222306967 3.928800106 -0.186607152
O -3.973006964 2.842400074 0.326392829
O 0.716793060 1.740399957 -0.466007173
C 0.836893082 0.565999985 -0.166407153
N -0.171107054 -0.229099989 0.287392855
C 2.137193203 -0.113199979 -0.275407165
C 3.299492836 0.480100006 -0.689107180
C 4.398192883 -0.399099976 -0.696607172
C 4.064692974 -1.652799964 -0.290007174
S 2.402893066 -1.786599994 0.110892847
P -4.792201996 -1.451417565 -1.266968966
O -4.671821594 0.561979175 -2.960922480
I -2.702836037 1.335929751 -1.468717217
P -2.079061747 -1.101214647 -1.914022684
P -3.704634905 -1.021021724 -1.828205585
C -2.259184122 -2.453721285 -2.382466793
Br -6.940003395 0.178326741 -2.696097851
Cl -6.277589798 -0.835803092 -1.835242033
O -5.133677483 2.079725742 -3.108038187
N -5.456555367 1.242681503 -1.572269201
I -4.751876354 -1.524598718 -2.296248913
S -5.902599812 0.259229898 -1.438797593
Br -3.117151737 -2.285598993 -2.409419775
Cl -2.560806274 -3.464673519 -1.225478888
S -4.277043819 0.395295948 -1.744338393
F -4.400352478 -1.712666392 -1.426136374
S -2.806818724 -0.132910013 -3.045682669
Br -3.717555046 -2.339751959 -3.062039614
Cl -4.873552799 -0.233740285 -2.851413250
