33

C -3.298106909 -3.896199942 0.699992836
C -2.455307007 -3.209899902 1.770992756
O -1.708307028 -2.119099855 1.271292806
C -3.028007030 3.848299980 -1.696807146
C -3.222306967 3.928800106 -0.186607152
O -3.973006964 2.842400074 0.326392829
O 0.716793060 1.740399957 -0.466007173
C 0.836893082 0.565999985 -0.166407153
N -0.171107054 -0.229099989 0.287392855
C 2.137193203 -0.113199979 -0.275407165
C 3.299492836 0.480100006 -0.689107180
C 4.398192883 -0.399099976 -0.696607172
C 4.064692974 -1.652799964 -0.290007174
S 2.402893066 -1.786599994 0.110892847
N -0.847761333 1.315164089 -1.685036898
C -2.031882286 0.260330856 -1.594344974
Cl -1.658470750 0.028816998 -2.414938688
I -0.705461204 1.905345082 -0.540091574
P -1.711982727 0.427888840 -1.026065588
S -2.305583239 -1.289673448 1.087208748
Cl -2.167152405 -1.058323264 -0.551652312
O -1.947261810 -1.637517095 -1.231698632
S -1.100124002 0.278561175 -1.733150959
P -1.614808559 -1.284144044 -0.615425467
F 0.178234085 -0.912277222 -2.909365654
S -1.719787478 0.567263484 -2.606196642
O -0.045098044 -0.164825037 -2.456152916
Cl -1.282318473 -1.252535701 0.696281314
P -1.427587271 0.534284830 -0.720796764
S -2.286893368 -1.668004870 -1.856567860
Cl -1.884921551 0.387201607 -1.858801126
N -3.034589767 -0.750416517 -1.536179781
N -2.348860741 0.528984785 -2.131445646
