33

C -3.298106909 -3.896199942 0.699992836
C -2.455307007 -3.209899902 1.770992756
O -1.708307028 -2.119099855 1.271292806
C -3.028007030 3.848299980 -1.696807146
C -3.222306967 3.928800106 -0.186607152
O -3.973006964 2.842400074 0.326392829
O 0.716793060 1.740399957 -0.466007173
C 0.836893082 0.565999985 -0.166407153
N -0.171107054 -0.229099989 0.287392855
C 2.137193203 -0.113199979 -0.275407165
C 3.299492836 0.480100006 -0.689107180
C 4.398192883 -0.399099976 -0.696607172
C 4.064692974 -1.652799964 -0.290007174
S 2.402893066 -1.786599994 0.110892847
P -4.798264503 -2.275762320 -1.042022228
O -5.195335388 0.787102401 -2.944284439
I -2.624046326 1.272542357 -0.920068145
P -2.207818031 -0.990696788 -1.921735168
P -3.713391066 -0.845673561 -2.198613405
F -2.430923700 -2.429384470 -2.081121445
Br -7.177266598 0.455739796 -2.657946825
P -6.529017925 -0.696026444 -2.195562840
O -4.842992306 1.733750582 -3.096410990
Br -5.678288460 1.014342189 -2.001821041
S -5.132557392 -1.419533134 -2.213098049
S -5.956845284 -0.024541298 -1.351065040
Br -2.996181726 -2.176485777 -2.390420675
Cl -2.640794277 -3.615397930 -1.371506333
S -3.966962814 0.541740477 -1.749349952
I -4.510964870 -1.783863664 -1.395046234
S -2.774390697 -0.043555066 -3.147241354
Br -4.061740875 -2.746260881 -3.161074162
Cl -5.166354179 -0.502156198 -2.749032497
