33

C -3.298106909 -3.896199942 0.699992836
C -2.455307007 -3.209899902 1.770992756
O -1.708307028 -2.119099855 1.271292806
C -3.028007030 3.848299980 -1.696807146
C -3.222306967 3.928800106 -0.186607152
O -3.973006964 2.842400074 0.326392829
O 0.716793060 1.740399957 -0.466007173
C 0.836893082 0.565999985 -0.166407153
N -0.171107054 -0.229099989 0.287392855
C 2.137193203 -0.113199979 -0.275407165
C 3.299492836 0.480100006 -0.689107180
C 4.398192883 -0.399099976 -0.696607172
C 4.064692974 -1.652799964 -0.290007174
S 2.402893066 -1.786599994 0.110892847
P -6.394244194 -1.683839083 -1.715813756
O -6.902179241 1.969905853 -2.812393188
Br -4.544458389 0.273083091 -2.568469763
C -1.561219454 -0.859677851 -3.170419931
Br -3.587919950 -1.611764908 -2.162861109
F -3.520161629 -3.425709248 -1.978487492
Br -7.920237064 1.257372975 -3.626751184
I -7.988415241 -0.307614148 -2.700104475
Cl -6.584971905 1.115103602 -2.869234800
Cl -7.202672482 1.728795171 -1.153874636
S -7.044357300 -1.691497326 -1.991808176
S -6.644653320 -0.307292968 -2.137902260
C -3.873205900 -2.365865946 -3.047518969
N -3.070911646 -3.901158094 -1.541789770
Cl -3.248574018 -0.430041730 -3.469844580
C -5.893688202 -2.185181856 -1.024028778
C -3.424448729 -0.406004369 -4.244421005
P -5.067329884 -3.435532093 -2.611955643
O -5.058873653 -0.795492768 -2.171442747
