33

C -3.298106909 -3.896199942 0.699992836
C -2.455307007 -3.209899902 1.770992756
O -1.708307028 -2.119099855 1.271292806
C -3.028007030 3.848299980 -1.696807146
C -3.222306967 3.928800106 -0.186607152
O -3.973006964 2.842400074 0.326392829
O 0.716793060 1.740399957 -0.466007173
C 0.836893082 0.565999985 -0.166407153
N -0.171107054 -0.229099989 0.287392855
C 2.137193203 -0.113199979 -0.275407165
C 3.299492836 0.480100006 -0.689107180
C 4.398192883 -0.399099976 -0.696607172
C 4.064692974 -1.652799964 -0.290007174
S 2.402893066 -1.786599994 0.110892847
P -5.168096066 -2.113792896 -0.654685616
O -6.207063198 1.703576803 -3.503660202
I -4.358843803 -0.114781812 -2.273316145
Cl -1.769885898 -1.441802740 -3.200497627
P -3.428470850 -1.332287312 -2.860330343
N -2.898009777 -3.304517746 -2.071609497
Br -7.739215374 1.107210398 -3.136424541
S -7.465775490 -0.235791326 -2.735200882
F -5.901900768 1.035190105 -2.565308571
Br -6.218806744 1.240861773 -1.634477973
S -7.113545418 -0.958022773 -2.315307140
S -5.970050335 -0.206599414 -2.521070480
O -3.472975969 -1.708673000 -2.593720913
I -3.214858055 -3.499928236 -1.800292134
S -3.080688000 -0.014925152 -2.815468788
C -5.649517536 -2.126996040 -1.614259362
S -2.986070871 -0.484473526 -4.144839287
Br -4.499519348 -3.172295809 -2.788828611
C -5.592592716 -0.786497772 -1.443859100
