33

C -3.298106909 -3.896199942 0.699992836
C -2.455307007 -3.209899902 1.770992756
O -1.708307028 -2.119099855 1.271292806
C -3.028007030 3.848299980 -1.696807146
C -3.222306967 3.928800106 -0.186607152
O -3.973006964 2.842400074 0.326392829
O 0.716793060 1.740399957 -0.466007173
C 0.836893082 0.565999985 -0.166407153
N -0.171107054 -0.229099989 0.287392855
C 2.137193203 -0.113199979 -0.275407165
C 3.299492836 0.480100006 -0.689107180
C 4.398192883 -0.399099976 -0.696607172
C 4.064692974 -1.652799964 -0.290007174
S 2.402893066 -1.786599994 0.110892847
I -6.329859734 -1.505723119 -1.640831828
F -7.033497334 2.144199133 -2.958163977
C -4.963775158 0.627584338 -2.616896391
C -1.339119077 -0.909474492 -2.924477816
Br -3.424644470 -1.529933691 -2.292359829
F -3.449033976 -3.087649584 -1.989664078
O -7.508476734 1.275828242 -3.782982349
P -7.953742981 -0.258642226 -2.995664358
F -6.848686695 1.104913592 -2.463479996
I -7.112152100 1.672896147 -1.225774527
S -7.301010132 -1.636124492 -2.057499647
S -6.643493176 -0.560625315 -1.988978863
I -3.696361065 -2.438243866 -2.789791822
Br -2.735226870 -3.848152399 -1.610837698
S -3.268934011 -0.420755714 -3.417762995
C -5.953760624 -2.331556559 -0.832112074
C -3.385533571 -0.322915107 -4.524563789
C -5.021081924 -3.652449131 -2.168307543
O -4.906188011 -0.796956480 -2.362759829
