33

C -3.298106909 -3.896199942 0.699992836
C -2.455307007 -3.209899902 1.770992756
O -1.708307028 -2.119099855 1.271292806
C -3.028007030 3.848299980 -1.696807146
C -3.222306967 3.928800106 -0.186607152
O -3.973006964 2.842400074 0.326392829
O 0.716793060 1.740399957 -0.466007173
C 0.836893082 0.565999985 -0.166407153
N -0.171107054 -0.229099989 0.287392855
C 2.137193203 -0.113199979 -0.275407165
C 3.299492836 0.480100006 -0.689107180
C 4.398192883 -0.399099976 -0.696607172
C 4.064692974 -1.652799964 -0.290007174
S 2.402893066 -1.786599994 0.110892847
I -6.406177521 -1.487208009 -1.709044576
F -7.057560444 2.126710415 -2.961267948
C -4.933949471 0.425435513 -2.553078651
C -1.399859667 -0.749965191 -2.957729101
Br -3.322179556 -1.505105376 -2.112414837
Cl -3.347533941 -3.202475309 -2.148492098
C -7.675070286 1.324525237 -3.668673992
S -8.025623322 -0.264915287 -3.009577036
F -6.743315220 1.089753032 -2.566278458
Cl -7.058393478 1.613807559 -1.349248290
S -7.378571033 -1.658524632 -1.962958455
S -6.685488224 -0.410132349 -2.013503313
C -3.875303984 -2.371696472 -2.812344074
N -2.890080214 -3.780673504 -1.592509031
S -3.244214058 -0.406819403 -3.456951618
C -5.936739922 -2.409661531 -0.912693679
C -3.371438026 -0.402338028 -4.542464733
C -4.995876312 -3.653449535 -2.361721516
O -5.047271729 -0.738578677 -2.287137747
