33

C -3.298106909 -3.896199942 0.699992836
C -2.455307007 -3.209899902 1.770992756
O -1.708307028 -2.119099855 1.271292806
C -3.028007030 3.848299980 -1.696807146
C -3.222306967 3.928800106 -0.186607152
O -3.973006964 2.842400074 0.326392829
O 0.716793060 1.740399957 -0.466007173
C 0.836893082 0.565999985 -0.166407153
N -0.171107054 -0.229099989 0.287392855
C 2.137193203 -0.113199979 -0.275407165
C 3.299492836 0.480100006 -0.689107180
C 4.398192883 -0.399099976 -0.696607172
C 4.064692974 -1.652799964 -0.290007174
S 2.402893066 -1.786599994 0.110892847
P -4.762076378 -1.345392346 -1.179485202
O -4.005313396 0.277423054 -3.145632267
O -3.025832653 1.417824268 -1.532844782
Cl -2.418360472 -0.084068544 -2.116962671
Br -1.577752709 -0.559858680 -1.241475821
C -2.685995340 -2.779932976 -2.463201284
Br -6.195182800 0.188169047 -1.857181191
O -4.563903809 -0.887603045 -1.339184880
P -3.312906981 1.884605646 -3.082949877
N -4.897669315 0.355520964 -1.208835363
I -2.876365185 -1.665334344 -1.979029179
Cl -5.317582130 0.196890905 -2.281431913
O -1.206116915 -1.717846751 -2.765085459
P -1.625892758 -3.681938410 -1.260302186
Cl -3.429368734 0.861460388 -1.952627301
S -3.731617928 -0.900757551 -1.244654536
C -1.662536979 0.608119965 -3.188656569
O -4.049565315 -1.771770477 -2.541726589
Br -3.572839022 0.010065146 -1.756414890
