33

C -3.298106909 -3.896199942 0.699992836
C -2.455307007 -3.209899902 1.770992756
O -1.708307028 -2.119099855 1.271292806
C -3.028007030 3.848299980 -1.696807146
C -3.222306967 3.928800106 -0.186607152
O -3.973006964 2.842400074 0.326392829
O 0.716793060 1.740399957 -0.466007173
C 0.836893082 0.565999985 -0.166407153
N -0.171107054 -0.229099989 0.287392855
C 2.137193203 -0.113199979 -0.275407165
C 3.299492836 0.480100006 -0.689107180
C 4.398192883 -0.399099976 -0.696607172
C 4.064692974 -1.652799964 -0.290007174
S 2.402893066 -1.786599994 0.110892847
P -4.887153149 -0.520040393 -0.138802677
O -2.701377153 1.172526002 -1.392409325
O -2.298177242 1.134922743 -1.525078297
P -1.951174617 1.821393132 -2.382940769
Br -2.619993448 -1.412180424 0.066308461
F -1.357995868 -2.351135731 -1.593098879
N -4.741708755 -0.096394598 -1.310715437
Cl -4.192288876 -1.270444393 -1.705693126
O -2.547606707 1.361126900 -3.069707394
F -4.315972328 -0.299286038 -1.035624981
F -1.136615038 -1.926631451 -1.205779910
Cl -4.340167046 0.525904477 -2.809501886
O -0.380918205 -1.373254538 -1.927898407
S -1.294866204 -2.144608974 -0.442954004
S -3.168520212 0.607745469 -1.918493986
C -3.056079149 -0.590561271 -1.719490886
S -0.851663053 0.224176303 -2.555060625
Cl -2.208721161 -0.629961669 -2.184731483
N -3.174723387 0.223962098 -1.233792305
