33

C -3.298106909 -3.896199942 0.699992836
C -2.455307007 -3.209899902 1.770992756
O -1.708307028 -2.119099855 1.271292806
C -3.028007030 3.848299980 -1.696807146
C -3.222306967 3.928800106 -0.186607152
O -3.973006964 2.842400074 0.326392829
O 0.716793060 1.740399957 -0.466007173
C 0.836893082 0.565999985 -0.166407153
N -0.171107054 -0.229099989 0.287392855
C 2.137193203 -0.113199979 -0.275407165
C 3.299492836 0.480100006 -0.689107180
C 4.398192883 -0.399099976 -0.696607172
C 4.064692974 -1.652799964 -0.290007174
S 2.402893066 -1.786599994 0.110892847
C -6.335280418 -1.478237510 -1.563194275
C -7.288004398 2.151436567 -3.356679916
C -5.245861053 0.788505793 -2.561839819
C -1.383852959 -1.292309046 -2.788384676
C -3.050531626 -1.376198292 -2.233515263
N -3.217256784 -2.873104572 -1.994417191
C -7.484175682 1.256682396 -4.002314091
C -8.483855247 -0.036256388 -3.392290115
C -6.381574154 1.458166599 -2.591278791
I -6.531418324 1.886571169 -1.435720682
N -7.025466919 -1.654200673 -2.684281111
C -6.811553955 -0.522442877 -2.392642260
C -3.901137352 -2.396265745 -3.405147791
C -2.349630833 -3.714110374 -1.203309655
C -3.262646914 -0.641991556 -3.605134249
C -5.936496258 -2.329674006 -0.842439473
C -3.848084211 -0.219457775 -4.801983833
O -4.829396725 -3.381788254 -2.552650452
C -4.901629448 -0.647218585 -2.656416178
