33

C -3.298106909 -3.896199942 0.699992836
C -2.455307007 -3.209899902 1.770992756
O -1.708307028 -2.119099855 1.271292806
C -3.028007030 3.848299980 -1.696807146
C -3.222306967 3.928800106 -0.186607152
O -3.973006964 2.842400074 0.326392829
O 0.716793060 1.740399957 -0.466007173
C 0.836893082 0.565999985 -0.166407153
N -0.171107054 -0.229099989 0.287392855
C 2.137193203 -0.113199979 -0.275407165
C 3.299492836 0.480100006 -0.689107180
C 4.398192883 -0.399099976 -0.696607172
C 4.064692974 -1.652799964 -0.290007174
S 2.402893066 -1.786599994 0.110892847
P -5.290131569 -1.991479516 -0.812847495
O -5.981040478 1.472512722 -3.488775015
Br -3.988373995 0.213516325 -2.285466433
Cl -1.582256317 -1.268613338 -2.761479855
P -3.704188585 -1.185595274 -2.664078951
Cl -3.017513037 -3.145748615 -2.108504534
Br -7.393535137 1.142824531 -2.923960209
S -7.533531189 -0.309747100 -2.667037487
P -5.693104744 1.187943220 -2.778770447
F -6.012144566 1.249212027 -2.049048901
S -6.945666313 -1.036874533 -2.577700853
S -5.849197865 0.287543535 -2.575405121
O -3.733237505 -1.889057040 -2.536306381
F -3.065536737 -3.219393730 -2.023745060
S -3.542186975 0.004278116 -2.720416307
C -5.605844975 -1.919234753 -1.498401880
S -3.127118349 -0.219545424 -4.258523941
Br -4.545014858 -3.100998402 -2.632420063
C -5.320415020 -0.623328090 -1.815862536
