33

C -3.298106909 -3.896199942 0.699992836
C -2.455307007 -3.209899902 1.770992756
O -1.708307028 -2.119099855 1.271292806
C -3.028007030 3.848299980 -1.696807146
C -3.222306967 3.928800106 -0.186607152
O -3.973006964 2.842400074 0.326392829
O 0.716793060 1.740399957 -0.466007173
C 0.836893082 0.565999985 -0.166407153
N -0.171107054 -0.229099989 0.287392855
C 2.137193203 -0.113199979 -0.275407165
C 3.299492836 0.480100006 -0.689107180
C 4.398192883 -0.399099976 -0.696607172
C 4.064692974 -1.652799964 -0.290007174
S 2.402893066 -1.786599994 0.110892847
P -5.639709949 -1.876585960 -0.799762666
O -6.935403347 1.757539392 -3.352596760
Br -4.369430542 0.190372795 -2.217298985
Cl -1.723214507 -1.091688514 -3.412358522
P -3.250410318 -1.887240887 -2.883547783
C -3.146157503 -3.228297710 -2.158936024
Br -7.609634399 1.168543339 -2.818290710
S -7.650966167 -0.143157125 -2.600498199
P -5.872075081 1.137821198 -2.828596592
I -6.866341591 1.461892724 -1.455282688
S -7.117610455 -1.196912289 -2.292706251
S -5.988662720 -0.606580913 -2.363837242
O -3.775117874 -1.916377068 -2.711775780
N -2.988665819 -3.980001926 -1.669007897
S -3.316118240 -0.194947213 -3.181833029
C -5.160041332 -2.237726450 -1.345280051
N -3.054782391 -0.384245634 -3.839455843
Br -4.628057480 -3.202237129 -2.652853251
C -5.473099709 -0.430036336 -1.737693191
