33

C -3.298106909 -3.896199942 0.699992836
C -2.455307007 -3.209899902 1.770992756
O -1.708307028 -2.119099855 1.271292806
C -3.028007030 3.848299980 -1.696807146
C -3.222306967 3.928800106 -0.186607152
O -3.973006964 2.842400074 0.326392829
O 0.716793060 1.740399957 -0.466007173
C 0.836893082 0.565999985 -0.166407153
N -0.171107054 -0.229099989 0.287392855
C 2.137193203 -0.113199979 -0.275407165
C 3.299492836 0.480100006 -0.689107180
C 4.398192883 -0.399099976 -0.696607172
C 4.064692974 -1.652799964 -0.290007174
S 2.402893066 -1.786599994 0.110892847
P -4.551063061 -1.146758318 -0.867915154
O -3.872239828 0.561075211 -2.955134869
O -2.234001398 1.455204725 -1.620021105
N -1.710742950 0.365704060 -1.381289959
Br -1.837396622 -1.234660149 -1.202566504
F -2.436289787 -2.923147202 -2.036270380
N -5.894735336 -0.398735642 -1.583970785
O -4.544691086 -1.149943113 -2.132251024
O -3.763281345 1.492175817 -2.632088900
N -4.947462559 0.473029703 -1.152084947
I -2.107891560 -1.644125938 -2.224796534
Cl -5.448997974 -0.082613453 -2.495625496
N -1.477831721 -1.312964916 -2.545209646
P -1.626530886 -4.183515549 -1.178271770
S -3.390842915 0.773404062 -2.156156540
C -3.663639545 -0.559109509 -1.473090768
S -1.079799652 0.323523313 -2.552286386
S -3.260949850 -1.310927391 -2.337560177
C -3.326665878 0.253970563 -1.423332572
