33

C -3.298106909 -3.896199942 0.699992836
C -2.455307007 -3.209899902 1.770992756
O -1.708307028 -2.119099855 1.271292806
C -3.028007030 3.848299980 -1.696807146
C -3.222306967 3.928800106 -0.186607152
O -3.973006964 2.842400074 0.326392829
O 0.716793060 1.740399957 -0.466007173
C 0.836893082 0.565999985 -0.166407153
N -0.171107054 -0.229099989 0.287392855
C 2.137193203 -0.113199979 -0.275407165
C 3.299492836 0.480100006 -0.689107180
C 4.398192883 -0.399099976 -0.696607172
C 4.064692974 -1.652799964 -0.290007174
S 2.402893066 -1.786599994 0.110892847
P -4.676394463 -0.900207102 -0.599008083
O -3.477284193 0.601947010 -2.847452164
O -2.266431093 1.656319857 -1.449077010
N -1.582721233 0.283010721 -1.220552802
Br -1.567486644 -0.781460404 -1.284433603
F -2.264016867 -3.041907787 -1.943006158
Br -5.763047218 -0.216188148 -1.616939902
I -4.635612488 -1.075884223 -2.412402153
O -3.316172123 1.326286316 -2.302520990
N -4.984091759 0.482301414 -1.247328758
I -1.573804021 -1.951847672 -1.957220316
Cl -5.168198109 -0.017124051 -2.200587988
O -1.681426406 -1.585333943 -2.307820320
P -2.076147556 -3.738582134 -0.929397821
S -3.401473284 0.717337251 -2.138382912
F -3.722180128 -0.735319495 -0.887154460
S -1.247018695 0.107589692 -2.900146723
S -3.239467859 -1.109408855 -2.572572708
C -3.176904202 0.220929235 -1.458594203
