33

C -3.298106909 -3.896199942 0.699992836
C -2.455307007 -3.209899902 1.770992756
O -1.708307028 -2.119099855 1.271292806
C -3.028007030 3.848299980 -1.696807146
C -3.222306967 3.928800106 -0.186607152
O -3.973006964 2.842400074 0.326392829
O 0.716793060 1.740399957 -0.466007173
C 0.836893082 0.565999985 -0.166407153
N -0.171107054 -0.229099989 0.287392855
C 2.137193203 -0.113199979 -0.275407165
C 3.299492836 0.480100006 -0.689107180
C 4.398192883 -0.399099976 -0.696607172
C 4.064692974 -1.652799964 -0.290007174
S 2.402893066 -1.786599994 0.110892847
P -4.406370640 0.449298412 -0.413429946
F -3.222370625 0.906753838 -1.690968037
C -2.719235897 0.495557517 -1.886746526
P -2.631641150 1.637088895 -1.962727308
P -2.476363659 -1.045836806 0.311572701
F -1.577482104 -2.586884737 -1.356229663
N -4.253434181 -0.833242357 -1.129279613
N -4.346281528 -1.112258315 -2.165216923
O -2.792301655 1.313902497 -3.032634735
F -3.090118647 -0.301770508 -1.128551960
S -0.688252568 -1.214145184 -1.587346315
Cl -4.061295986 0.235070527 -2.330209255
O -0.977884412 -0.806962490 -2.092570782
I -1.108935237 -2.142015934 -0.912307918
P -3.299709320 -0.716032922 -1.897260904
C -3.304286718 -0.577535331 -1.393648624
Cl 0.093933374 0.116054900 -2.733046770
Cl -1.370296240 -0.219938323 -2.042633057
F -2.621367216 0.231372938 -0.860773385
