33

C -3.298106909 -3.896199942 0.699992836
C -2.455307007 -3.209899902 1.770992756
O -1.708307028 -2.119099855 1.271292806
C -3.028007030 3.848299980 -1.696807146
C -3.222306967 3.928800106 -0.186607152
O -3.973006964 2.842400074 0.326392829
O 0.716793060 1.740399957 -0.466007173
C 0.836893082 0.565999985 -0.166407153
N -0.171107054 -0.229099989 0.287392855
C 2.137193203 -0.113199979 -0.275407165
C 3.299492836 0.480100006 -0.689107180
C 4.398192883 -0.399099976 -0.696607172
C 4.064692974 -1.652799964 -0.290007174
S 2.402893066 -1.786599994 0.110892847
C -6.398013115 -1.628997922 -1.539768934
C -7.445682526 2.049061537 -3.168632030
C -5.113055229 0.868451595 -2.625194550
C -1.466914654 -1.254925132 -2.761733294
C -3.115950823 -1.486204505 -2.281756163
N -3.320863962 -2.751787663 -1.875890493
C -7.350301266 1.116728067 -4.072773933
C -8.391944885 -0.114430420 -3.306331635
C -6.485489845 1.461208344 -2.588234901
O -6.504789829 1.895837069 -1.404318333
N -6.843454838 -1.612779617 -2.695360899
C -6.746010303 -0.379202038 -2.373076200
C -4.106632233 -2.424008846 -3.296857834
O -2.430666447 -3.848260403 -1.259233356
C -3.278364897 -0.663208783 -3.657904863
C -5.893211842 -2.362287283 -0.727911651
O -3.953073978 -0.245958060 -4.750358105
O -4.830400944 -3.177419901 -2.568902731
C -5.002365112 -0.580197513 -2.635120630
