33

C -3.298106909 -3.896199942 0.699992836
C -2.455307007 -3.209899902 1.770992756
O -1.708307028 -2.119099855 1.271292806
C -3.028007030 3.848299980 -1.696807146
C -3.222306967 3.928800106 -0.186607152
O -3.973006964 2.842400074 0.326392829
O 0.716793060 1.740399957 -0.466007173
C 0.836893082 0.565999985 -0.166407153
N -0.171107054 -0.229099989 0.287392855
C 2.137193203 -0.113199979 -0.275407165
C 3.299492836 0.480100006 -0.689107180
C 4.398192883 -0.399099976 -0.696607172
C 4.064692974 -1.652799964 -0.290007174
S 2.402893066 -1.786599994 0.110892847
P -5.457794666 -1.853842139 -1.010332108
O -6.863301754 1.648785591 -3.508643150
Br -4.153539181 -0.046676658 -2.236062765
Cl -1.709452271 -1.009494543 -3.372736692
P -3.317979097 -1.653399467 -2.964680195
N -2.833298206 -3.225065708 -2.444597244
Br -7.584906101 1.220952630 -2.979632854
S -7.681841373 -0.324937701 -2.650252342
P -5.893225670 0.968434572 -2.774398804
I -6.747702122 1.390319109 -1.422729254
S -7.175046444 -1.019269228 -2.332764626
S -6.000434875 -0.530069649 -2.309218645
N -3.606464624 -1.875353456 -2.473418474
I -3.107019901 -3.845247984 -1.667431474
S -3.233480453 -0.137985557 -2.910304308
C -5.197362900 -2.369456053 -1.549186945
C -2.936415195 -0.231541052 -3.933414221
Br -4.517014027 -3.301645756 -2.588953018
C -5.491362572 -0.523333907 -1.671902776
