33

C -3.298106909 -3.896199942 0.699992836
C -2.455307007 -3.209899902 1.770992756
O -1.708307028 -2.119099855 1.271292806
C -3.028007030 3.848299980 -1.696807146
C -3.222306967 3.928800106 -0.186607152
O -3.973006964 2.842400074 0.326392829
O 0.716793060 1.740399957 -0.466007173
C 0.836893082 0.565999985 -0.166407153
N -0.171107054 -0.229099989 0.287392855
C 2.137193203 -0.113199979 -0.275407165
C 3.299492836 0.480100006 -0.689107180
C 4.398192883 -0.399099976 -0.696607172
C 4.064692974 -1.652799964 -0.290007174
S 2.402893066 -1.786599994 0.110892847
N -4.637120247 0.312963814 -0.853088975
F -3.105142355 1.537341356 -1.781202555
C -1.734193683 0.847448051 -1.654843569
P -2.597811222 1.751546979 -1.726670861
P -2.327034235 -0.876711428 0.679355681
F -1.580102444 -2.807857037 -1.539811850
N -4.105552673 -0.710524917 -1.535526752
Cl -4.380394936 -1.312771916 -1.746548533
O -2.630475998 0.995062292 -3.226640224
C -3.011388302 -0.035841271 -1.178881645
S -0.695881784 -1.448060155 -1.495288372
Cl -3.927098751 0.183346957 -2.931331158
O -1.226389885 -0.539042950 -2.068276405
S -0.589994311 -1.918586493 -0.975100875
P -2.954003811 -0.398146003 -1.539983153
C -2.767569304 -0.639868736 -1.853458762
Cl 0.032739148 0.134856671 -2.472945690
O -1.140165567 -0.303252310 -1.997121811
F -2.971712112 -0.135429054 -0.653219819
