33

C -3.298106909 -3.896199942 0.699992836
C -2.455307007 -3.209899902 1.770992756
O -1.708307028 -2.119099855 1.271292806
C -3.028007030 3.848299980 -1.696807146
C -3.222306967 3.928800106 -0.186607152
O -3.973006964 2.842400074 0.326392829
O 0.716793060 1.740399957 -0.466007173
C 0.836893082 0.565999985 -0.166407153
N -0.171107054 -0.229099989 0.287392855
C 2.137193203 -0.113199979 -0.275407165
C 3.299492836 0.480100006 -0.689107180
C 4.398192883 -0.399099976 -0.696607172
C 4.064692974 -1.652799964 -0.290007174
S 2.402893066 -1.786599994 0.110892847
P -4.334137440 0.100560829 -0.790790975
F -2.876341105 1.124013186 -1.259058237
I -1.510854125 1.560862899 -1.805968642
S -2.042069435 0.894079924 -1.025743961
P -2.589817286 -0.267047703 0.555740356
O -1.370735645 -3.256193161 -1.385683656
N -3.670343161 -0.685033560 -1.617854238
N -3.911342382 -0.840337455 -1.917532921
O -2.460522413 1.053872466 -2.796038628
P -2.655364275 0.307167649 -0.238290951
S -1.292621851 -0.884943902 -1.602680802
Cl -3.495503426 -0.571430445 -2.567254305
O -0.544890642 -0.352235287 -2.159168005
P -0.909139276 -2.095614672 -0.855207264
P -2.890798092 -0.511914730 -1.282992363
O -2.941028118 -1.566232204 -2.423866749
Cl -0.612195492 0.458226562 -1.593266249
Cl -1.344545722 -0.413981706 -1.779741049
F -2.318478107 -0.118687361 -0.722876608
