33

C -3.298106909 -3.896199942 0.699992836
C -2.455307007 -3.209899902 1.770992756
O -1.708307028 -2.119099855 1.271292806
C -3.028007030 3.848299980 -1.696807146
C -3.222306967 3.928800106 -0.186607152
O -3.973006964 2.842400074 0.326392829
O 0.716793060 1.740399957 -0.466007173
C 0.836893082 0.565999985 -0.166407153
N -0.171107054 -0.229099989 0.287392855
C 2.137193203 -0.113199979 -0.275407165
C 3.299492836 0.480100006 -0.689107180
C 4.398192883 -0.399099976 -0.696607172
C 4.064692974 -1.652799964 -0.290007174
S 2.402893066 -1.786599994 0.110892847
P -4.708780766 -1.473835945 -0.877090514
O -3.799939632 0.250172555 -2.976232290
O -2.751706839 1.241468668 -1.444297552
S -1.997165561 0.039266564 -2.001940250
Br -2.072790861 -0.870088518 -1.558342099
P -2.581272602 -2.720819950 -2.140181303
Br -6.249485970 -0.215762466 -1.674085140
O -4.511596203 -1.055642605 -1.665978193
O -3.864727736 1.790274024 -2.854545593
N -4.525968075 0.389412761 -1.577198744
I -2.515363216 -1.300545692 -1.856742263
Cl -5.762773991 0.222329587 -2.261390448
N -1.415818095 -1.528028250 -2.741598606
P -1.524891973 -3.733307600 -1.431454897
S -3.378377438 0.817711353 -2.256252050
S -3.852037430 -0.592000902 -1.457524300
C -1.676343679 0.548979461 -2.985523462
Cl -3.994830608 -1.444966555 -2.329801798
C -3.243349552 -0.087432571 -1.589253664
