33

C -3.298106909 -3.896199942 0.699992836
C -2.455307007 -3.209899902 1.770992756
O -1.708307028 -2.119099855 1.271292806
C -3.028007030 3.848299980 -1.696807146
C -3.222306967 3.928800106 -0.186607152
O -3.973006964 2.842400074 0.326392829
O 0.716793060 1.740399957 -0.466007173
C 0.836893082 0.565999985 -0.166407153
N -0.171107054 -0.229099989 0.287392855
C 2.137193203 -0.113199979 -0.275407165
C 3.299492836 0.480100006 -0.689107180
C 4.398192883 -0.399099976 -0.696607172
C 4.064692974 -1.652799964 -0.290007174
S 2.402893066 -1.786599994 0.110892847
P -5.146840572 -1.949440956 -0.928175330
O -6.066049576 1.457291722 -3.359761238
Br -4.219963551 0.356492132 -2.256409168
Cl -1.270918489 -1.093590617 -2.699117899
P -3.677292585 -1.060349941 -2.733845949
Cl -2.690329075 -2.991286993 -2.117485285
Br -7.245431900 1.349463940 -2.932698488
N -7.302571297 -0.018857479 -2.765505552
F -5.553457737 1.080721378 -2.675050974
F -5.999080181 1.483492732 -1.912146926
S -6.799983978 -1.053582907 -2.494577885
S -5.814644337 0.442129731 -2.577458143
O -3.595433950 -2.025926352 -2.691852808
F -3.270509005 -3.143748045 -1.684485555
S -3.518225431 0.010100311 -2.729437113
C -5.492934227 -2.081230640 -1.436262488
S -3.083448172 -0.345874369 -4.324928761
Br -4.597077847 -3.147478104 -2.652139425
C -5.148351192 -0.660615504 -1.979273200
