33

C -3.298106909 -3.896199942 0.699992836
C -2.455307007 -3.209899902 1.770992756
O -1.708307028 -2.119099855 1.271292806
C -3.028007030 3.848299980 -1.696807146
C -3.222306967 3.928800106 -0.186607152
O -3.973006964 2.842400074 0.326392829
O 0.716793060 1.740399957 -0.466007173
C 0.836893082 0.565999985 -0.166407153
N -0.171107054 -0.229099989 0.287392855
C 2.137193203 -0.113199979 -0.275407165
C 3.299492836 0.480100006 -0.689107180
C 4.398192883 -0.399099976 -0.696607172
C 4.064692974 -1.652799964 -0.290007174
S 2.402893066 -1.786599994 0.110892847
S -6.381221294 -1.553942561 -1.602173567
F -7.207784176 2.120849371 -3.432184696
P -5.164774895 0.783980250 -2.499327898
O -1.306615114 -1.189795852 -2.952217817
C -3.031697750 -1.553700089 -2.245142937
N -3.143834352 -2.824815750 -2.167794704
C -7.528913975 1.495672941 -3.932900906
P -8.547253609 -0.061650127 -3.352231503
C -6.531135082 1.568663001 -2.538537979
Cl -6.667601585 1.790203333 -1.473896146
N -7.116119862 -1.608546734 -2.608020544
C -6.638428688 -0.455413133 -2.362123728
P -3.943965673 -2.344485760 -3.317224264
Br -2.368268490 -3.683293104 -1.319125772
C -3.306488991 -0.707988322 -3.631973982
C -5.864755154 -2.249513388 -1.032676935
N -3.938061476 -0.177021310 -4.744655132
O -4.807415485 -3.540612936 -2.525995970
C -4.823046207 -0.661287665 -2.552205324
