33

C -3.298106909 -3.896199942 0.699992836
C -2.455307007 -3.209899902 1.770992756
O -1.708307028 -2.119099855 1.271292806
C -3.028007030 3.848299980 -1.696807146
C -3.222306967 3.928800106 -0.186607152
O -3.973006964 2.842400074 0.326392829
O 0.716793060 1.740399957 -0.466007173
C 0.836893082 0.565999985 -0.166407153
N -0.171107054 -0.229099989 0.287392855
C 2.137193203 -0.113199979 -0.275407165
C 3.299492836 0.480100006 -0.689107180
C 4.398192883 -0.399099976 -0.696607172
C 4.064692974 -1.652799964 -0.290007174
S 2.402893066 -1.786599994 0.110892847
I -3.207747698 -0.563540280 -1.107356787
C -3.474994421 1.020762086 -1.179960728
Br -2.360986471 1.518891096 -2.004327297
S -1.835918427 1.097539902 -1.593121767
P -0.989657521 0.014910795 0.444885164
N -1.942693830 -2.512881279 -0.712382376
S -2.345791340 -0.834843457 -0.245944917
P -3.379303932 -0.906757414 -2.242669106
O -2.167037964 1.089929104 -2.703628063
O -1.845420480 0.651224375 -0.166077450
S -1.057398677 -0.844318449 -1.631642342
Br -2.904501915 0.449208349 -1.778005123
O 0.058409758 -0.501572490 -2.435543537
S -1.115937471 -1.002250075 -0.388464510
P -3.228696823 0.245143548 -1.370403767
O -2.560469866 -0.794436932 -1.529719472
Cl -1.050208211 0.210204586 -1.536121964
Cl -2.026742935 -0.781181216 -1.009670734
O -2.132367373 0.179646552 -0.287168056
