33

C -3.298106909 -3.896199942 0.699992836
C -2.455307007 -3.209899902 1.770992756
O -1.708307028 -2.119099855 1.271292806
C -3.028007030 3.848299980 -1.696807146
C -3.222306967 3.928800106 -0.186607152
O -3.973006964 2.842400074 0.326392829
O 0.716793060 1.740399957 -0.466007173
C 0.836893082 0.565999985 -0.166407153
N -0.171107054 -0.229099989 0.287392855
C 2.137193203 -0.113199979 -0.275407165
C 3.299492836 0.480100006 -0.689107180
C 4.398192883 -0.399099976 -0.696607172
C 4.064692974 -1.652799964 -0.290007174
S 2.402893066 -1.786599994 0.110892847
P -5.517130375 -1.767153382 -0.868317604
O -6.947394848 1.769161224 -3.317627907
Br -4.370711327 0.312452972 -2.267641068
Cl -1.686256528 -0.982071877 -3.403467417
Br -3.255952120 -1.597007513 -2.732980490
N -3.028648376 -3.282291889 -2.156234264
Br -7.751103878 1.253926873 -2.911484003
S -7.607976913 -0.195562661 -2.504269838
P -5.917263031 1.288820744 -2.876276731
I -6.760952950 1.524354696 -1.371810436
S -7.102264881 -1.299932599 -2.376319408
S -5.939944267 -0.339152485 -2.269118309
O -3.612914324 -2.047106504 -2.719403028
I -2.992591381 -3.865797758 -1.668386579
S -3.395426989 -0.127891511 -3.265193224
C -5.062565327 -2.133367538 -1.399598122
N -3.145095587 -0.601322591 -3.808570385
Br -4.744089127 -3.119804144 -2.478973866
F -5.409051418 -0.544445634 -1.725192070
