33

C -3.298106909 -3.896199942 0.699992836
C -2.455307007 -3.209899902 1.770992756
O -1.708307028 -2.119099855 1.271292806
C -3.028007030 3.848299980 -1.696807146
C -3.222306967 3.928800106 -0.186607152
O -3.973006964 2.842400074 0.326392829
O 0.716793060 1.740399957 -0.466007173
C 0.836893082 0.565999985 -0.166407153
N -0.171107054 -0.229099989 0.287392855
C 2.137193203 -0.113199979 -0.275407165
C 3.299492836 0.480100006 -0.689107180
C 4.398192883 -0.399099976 -0.696607172
C 4.064692974 -1.652799964 -0.290007174
S 2.402893066 -1.786599994 0.110892847
I -6.241450310 -1.661773801 -1.685082793
O -6.918518066 1.735111356 -3.030785561
Br -4.747670650 0.116048299 -2.502298117
C -1.450060844 -0.882056296 -3.122468710
Br -3.483003855 -1.633594513 -2.293464899
C -3.315069675 -3.439901114 -2.007317781
Br -7.878231525 1.171199441 -3.516054392
S -7.982611179 -0.220876589 -2.576562643
Cl -6.472970963 1.104310751 -2.685531378
I -7.246007919 1.537269235 -1.277706742
S -7.198628426 -1.655415535 -2.097501278
S -6.407148361 -0.139094204 -2.170067549
C -3.836033106 -2.414220572 -2.959923506
N -3.208003759 -3.930504799 -1.521277428
Cl -3.412924528 -0.462914228 -3.357937098
C -5.784679413 -2.190924644 -0.999056458
C -3.388171673 -0.517051995 -4.130297661
Br -5.007598877 -3.526327610 -2.663018465
O -5.050073147 -0.776931942 -2.073257446
